 ****** HSPICE -- A-2008.03 32-BIT (Feb 26 2008) winnt ******                   
  Copyright (C) 2008 Synopsys, Inc. All Rights Reserved.                        
  Unpublished-rights reserved under US copyright laws.
  This program is protected by law and is subject to the 
  terms and conditions of the license agreement found in:
    C:\synopsys\Hspice_A-2008.03\license.warn
  Use of this program is your acceptance to be bound by this 
  license agreement. HSPICE is the trademark of Synopsys, Inc.
  Input File: c:\users\mahbod\desktop\part2\sample.sp                           
 Init: read install configuration file: C:\synopsys\Hspice_A-2008.03\meta.cfg
 Init: hspice initialization file: C:\synopsys\Hspice_A-2008.03\hspice.ini





 .option  post
 .option nomod
 .option  measdgt=6
 .temp  27
 .param  vdd=1.8v  pulsew=10n  delay=10p  loadc=1f  lentran='13*pulsew'

 ***************************************************************************************
 ***************************************************************************************
 **********************************  transitions  **************************************
 ***************************************************************************************
 ***************************************************************************************

 *.tran  10p  lentran  sweep  vdd    0.8v  2.4v  0.4v
 *.tran  10p  lentran  sweep  vdd    0.8v   2.4v  0.05v
 *.tran  10p  lentran  
 .tran  10p  lentran  sweep  wmin 0.13u    0.25u   0.001u


 *.tran  10p  lentran   sweep   k1    9.8  10 0.01
 *.tran  10p  lentran   sweep   k2    9.4  9.6  0.01
 *.tran  10p  lentran   sweep   k3    1  1.5  0.01
 *.tran  10p  lentran   sweep   k4    0.5  1.5  0.01
 *.tran  10p  lentran   sweep   k5    0.5  1.5  0.01
 *.tran  10p  lentran   sweep   k6    0.5  1.5  0.01
 **************************************************************************************
 ***************************************************************************************
 *******************************  transistor sizing  ***********************************
 ***************************************************************************************
 ***************************************************************************************

 .param  lmin=0.13u  wmin=0.13u
 .param  k1=1   	 k2=1	    k3=1      k4=1    k5=1	 k6=1 

 .param  wp_l1='lmin*5'    wn_l1='lmin*3'
 .param  wp_l2='lmin*12'   wn_l2='lmin*5'


 ***************************************************************************************
 ***************************************************************************************

 vdd  vdd  0  vdd
 .global  vdd  0

 ***************************************************************************************
 ***************************************************************************************

 .include 'pmos-13u.lib'
 .model pmos pmos
 +level = 49

 +lint = 2.e-08 tox = 3.3e-09 
 +vth0 = -0.3499 rdsw = 400 

 +lmin=1.3e-7 lmax=1.3e-7 wmin=1.3e-7 wmax=1.0e-4 tref=27.0 version =3.1
 +xj= 4.5000000e-08         nch= 6.8500000e+18 
 +lln= 0.00                 lwn= 0.00                  wln= 0.00
 +wwn= 0.00                 ll= 0.00
 +lw= 0.00                  lwl= 0.00                  wint= 0.00
 +wl= 0.00                  ww= 0.00                   wwl= 0.00
 +mobmod=  1                binunit= 2                 xl=  0
 +xw=  0                    binflag=  0
 +dwg= 0.00                 dwb= 0.00 

 +k1= 0.4087000             k2= 0.00 
 +k3= 0.00                  dvt0= 5.0000000            dvt1= 0.2600000 
 +dvt2= -1.0000000e-02      dvt0w= 0.00                dvt1w= 0.00 
 +dvt2w= 0.00               nlx= 1.6500000e-07         w0= 0.00 
 +k3b= 0.00                 ngate= 5.0000000e+20 

 +vsat= 1.0500000e+05       ua= -1.4000000e-09         ub= 1.9499999e-18 
 +uc= -2.9999999e-11        prwb= 0.00 
 +prwg= 0.00                wr= 1.0000000              u0= 5.2000000e-03 
 +a0= 2.1199999             keta= 3.0300001e-02        a1= 0.00 
 +a2= 0.4000000             ags= 0.1000000             b0= 0.00 
 +b1= 0.00 

 +voff= -9.10000000e-02     nfactor= 0.1250000         cit= 2.7999999e-03 
 +cdsc= 0.00                cdscb= 0.00                cdscd= 0.00 
 +eta0= 80.0000000          etab= 0.00                 dsub= 1.8500000 

 +pclm= 2.5000000           pdiblc1= 4.8000000e-02     pdiblc2= 5.0000000e-05 
 +pdiblcb= 0.1432509        drout= 9.0000000e-02       pscbe1= 1.0000000e-20 
 +pscbe2= 1.0000000e-20     pvag= -6.0000000e-02       delta= 1.0100000e-02 
 +alpha0= 0.00              beta0= 30.0000000 

 +kt1= -0.3400000           kt2= -5.2700000e-02        at= 0.00 
 +ute= -1.2300000           ua1= -8.6300000e-10        ub1= 2.0000001e-18 
 +uc1= 0.00                 kt1l= 4.0000000e-09        prt= 0.00 

 +cj= 0.0015                mj= 0.7175511              pb= 1.24859
 +cjsw= 2e-10               mjsw= 0.3706993            php= 0.7731149
 +cta= 9.290391e-04         ctp= 7.456211e-04          pta= 1.527748e-03
 +ptp= 1.56325e-03          js=2.50e-08               jsw=4.00e-13
 +n=1.0                     xti=3.0                   cgdo=2.75e-10
 +cgso=2.75e-10             cgbo=0.0e+00              capmod= 2
 +nqsmod= 0                 elm= 5                    xpart= 1
 +cgsl= 1.1155e-10          cgdl= 1.1155e-10          ckappa= 0.8912
 +cf= 1.113e-10             clc= 5.475e-08            cle= 6.46
  **warning** (pmos-13u.lib:7)  model pmos            device geometries will not be checked against the limits set bylmin, lmax, wmin and wmax. To enable this check, add a period(.)to the model name(i.e. enable model selector).
 .include 'nmos-13u.lib' *set 0.13um library
 .model nmos nmos
 +level = 49

 +lint = 2.5e-08 tox = 3.3e-09 
 +vth0 = 0.332 rdsw = 200 

 +lmin=1.3e-7 lmax=1.3e-7 wmin=1.3e-7 wmax=1.0e-4 tref=27.0 version =3.1
 +xj= 4.5000000e-08          nch= 5.6000000e+17 
 +lln= 1.0000000            lwn= 0.00                  wln= 0.00
 +wwn= 1.0000000            ll= 0.00
 +lw= 0.00                  lwl= 0.00                  wint= 0.00
 +wl= 0.00                  ww= 0.00                   wwl= 0.00
 +mobmod= 1                 binunit= 2                 xl= 0
 +xw= 0                     binflag=  0
 +dwg= 0.00                 dwb= 0.00 

 +k1= 0.3661500              k2= 0.00 
 +k3= 0.00                  dvt0= 8.7500000            dvt1= 0.7000000 
 +dvt2= 5.0000000e-02       dvt0w= 0.00                dvt1w= 0.00 
 +dvt2w= 0.00               nlx= 3.5500000e-07         w0= 0.00 
 +k3b= 0.00                 ngate= 5.0000000e+20 

 +vsat= 1.3500000e+05       ua= -1.8000000e-09         ub= 2.2000000e-18 
 +uc= -2.9999999e-11        prwb= 0.00 
 +prwg= 0.00                wr= 1.0000000              u0= 1.3400000e-02 
 +a0= 2.1199999             keta= 4.0000000e-02        a1= 0.00 
 +a2= 0.9900000             ags= -0.1000000            b0= 0.00 
 +b1= 0.00 

 +voff= -7.9800000e-02      nfactor= 1.1000000         cit= 0.00 
 +cdsc= 0.00                cdscb= 0.00                cdscd= 0.00 
 +eta0= 4.0000000e-02       etab= 0.00                 dsub= 0.5200000 

 +pclm= 0.1000000           pdiblc1= 1.2000000e-02     pdiblc2= 7.5000000e-03 
 +pdiblcb= -1.3500000e-02   drout= 0.2800000           pscbe1= 8.6600000e+08 
 +pscbe2= 1.0000000e-20     pvag= -0.2800000           delta= 1.0100000e-02 
 +alpha0= 0.00              beta0= 30.0000000 

 +kt1= -0.3400000           kt2= -5.2700000e-02        at= 0.00 
 +ute= -1.2300000           ua1= -8.6300000e-10        ub1= 2.0000001e-18 
 +uc1= 0.00                 kt1l= 4.0000000e-09        prt= 0.00 

 +cj= 0.0015                mj= 0.7175511              pb= 1.24859
 +cjsw= 2e-10               mjsw= 0.3706993            php= 0.7731149
 +cta= 9.290391e-04         ctp= 7.456211e-04          pta= 1.527748e-03
 +ptp= 1.56325e-03          js=2.50e-08                jsw=4.00e-13
 +n=1.0                     xti=3.0                    cgdo=2.75e-10
 +cgso=2.75e-10             cgbo=0.0e+00               capmod= 2
 +nqsmod= 0                 elm= 5                     xpart= 1
 +cgsl= 1.1155e-10          cgdl= 1.1155e-10           ckappa= 0.8912
 +cf= 1.113e-10             clc= 5.475e-08             cle= 6.46
  **warning** (nmos-13u.lib:7)  model nmos            device geometries will not be checked against the limits set bylmin, lmax, wmin and wmax. To enable this check, add a period(.)to the model name(i.e. enable model selector).

 ***************************************************************************************
 ***************************************************************************************
 ******************************  2-input pulse transitions  ****************************
 ***************************************************************************************
 ***************************************************************************************

 va a_in 0 pwl (0p 0v, '2*pulsew' 0v, '2*pulsew+delay' vdd, '5*pulsew' vdd, '5*pulsew+delay' 0v, '7*pulsew' 0v, '7*pulsew+delay' vdd, '8*pulsew' vdd, '8*pulsew+delay' 0v, '9*pulsew' 0v, '9*pulsew+delay' vdd, '10*pulsew' vdd, '10*pulsew+delay' 0v, '11*pulsew' 0v, '11*pulsew+delay' vdd, '12*pulsew' vdd, '12*pulsew+delay' 0v)

 van an_in 0 pwl (0p vdd, '2*pulsew' vdd, '2*pulsew+delay' 0v, '5*pulsew' 0v, '5*pulsew+delay' vdd, '7*pulsew' vdd, '7*pulsew+delay' 0v, '8*pulsew' 0v, '8*pulsew+delay' vdd, '9*pulsew' vdd, '9*pulsew+delay' 0v, '10*pulsew' 0v, '10*pulsew+delay' vdd, '11*pulsew' vdd, '11*pulsew+delay' 0v, '12*pulsew' 0v, '12*pulsew+delay' vdd)

 vb b_in 0 pwl (0p 0v, '1*pulsew' 0v, '1*pulsew+delay' vdd, '3*pulsew' vdd, '3*pulsew+delay' 0v, '4*pulsew' 0v, '4*pulsew+delay' vdd, '6*pulsew' vdd, '6*pulsew+delay' 0v, '7*pulsew' 0v, '7*pulsew+delay' vdd, '8*pulsew' vdd, '8*pulsew+delay' 0v, '10*pulsew' 0v, '10*pulsew+delay' vdd, '11*pulsew' vdd, '11*pulsew+delay' 0v)

 ***************************************************************************************
 ***************************************************************************************
 **********************************  input buffers  ************************************
 ***************************************************************************************
 ***************************************************************************************

 ma_inbuff_p1	a_n	  a_in	  vdd 	 vdd	pmos		w=wp_l1		 l=lmin
 ma_inbuff_n1	a_n	  a_in	  0   	 0	nmos  		w=wn_l1 	 l=lmin
 ma_inbuff_p2	a	  a_n	  vdd	 vdd	pmos		w=wp_l2 	 l=lmin
 ma_inbuff_n2	a	  a_n	  0	 0	nmos		w=wp_l2 	 l=lmin

 man_inbuff_p1	an_n	  an_in	  vdd 	 vdd	pmos		w=wp_l1		 l=lmin
 man_inbuff_n1	an_n	  an_in	  0   	 0	nmos  		w=wn_l1 	 l=lmin
 man_inbuff_p2	an	  an_n	  vdd	 vdd	pmos		w=wp_l2 	 l=lmin
 man_inbuff_n2	an	  an_n	  0	 0	nmos		w=wp_l2 	 l=lmin

 mb_inbuff-p1	b_n	  b_in	  vdd 	 vdd	pmos	        w=wp_l1		 l=lmin
 mb_inbuff-n1	b_n	  b_in	  0   	 0	nmos  		w=wn_l1 	 l=lmin
 mb_inbuff-p2	b	  b_n	  vdd	 vdd	pmos		w=wp_l2 	 l=lmin
 mb_inbuff-n2	b	  b_n	  0	 0	nmos		w=wp_l2 	 l=lmin

 ***************************************************************************************
 ***************************************************************************************
 ********************************** circuit design  ************************************
 ***************************************************************************************
 ***************************************************************************************

 ***************************************************************************************
 ***************************************************************************************
 *********************************  pmos transistors  **********************************
 ***************************************************************************************
 ***************************************************************************************
 *mt1 y a b vdd pmos w='k1*wmin' l=lmin
 *mt2 y b a vdd pmos w='k2*wmin' l=lmin
 *mf2 yn y vdd vdd pmos w='k3*wmin' l=lmin

 mt1 y a b vdd pmos w=wmin l=lmin
 mt2 y b a vdd pmos w=wmin l=lmin
 mf2 yn y vdd vdd pmos w=wmin l=lmin
 ***************************************************************************************
 ***************************************************************************************
 *********************************  nmos transistors  **********************************
 ***************************************************************************************
 ***************************************************************************************
 *mt3 yn a b 0 nmos w='k4*wmin' l=lmin
 *mt4 yn b a 0 nmos w='k5*wmin' l=lmin
 *mf1 y yn 0 0 nmos w='k6*wmin' l=lmin

 mt3 yn a b 0 nmos w=wmin l=lmin
 mt4 yn b a 0 nmos w=wmin l=lmin
 mf1 y yn 0 0 nmos w=wmin l=lmin

 ***************************************************************************************
 ***************************************************************************************
 *******************************  output buffers  **************************************
 ***************************************************************************************
 ***************************************************************************************

 my_outbuff_p1  		xorb   	y   	vdd  	vdd	 pmos  w=wp_l1  l=lmin
 my_outbuff_n1  		xorb   	y   	0    	0	 nmos  w=wn_l1  l=lmin
 my_outbuff_p2  		xor    	xorb   	vdd  	vdd	 pmos  w=wp_l2  l=lmin
 my_outbuff_n2 		xor    	xorb   	0    	0	 nmos  w=wn_l2  l=lmin

 myn_outbuff_p1 	xnorb  	yn  	vdd  	vdd	 pmos  w=wp_l1  l=lmin
 myn_outbuff_n1		xnorb  	yn  	0    	0	 nmos  w=wn_l1  l=lmin
 myn_outbuff_p2		xnor   	xnorb  	vdd  	vdd	 pmos  w=wp_l2  l=lmin
 myn_outbuff_n2		xnor   	xnorb  	0    	0	 nmos  w=wn_l2  l=lmin

 ***************************************************************************************
 ***************************************************************************************
 *********************************  measurements  **************************************
 ***************************************************************************************
 ***************************************************************************************

 .measure  tran  average_power  avg  power  from=0ns  to=lentran


 ***************************************************************************************
 ***************************************************************************************

 .measure  tran  tda_f_xor1   trig  v(a)  val='vdd/2'  td=15n   rise=1  targ  v(y)   val='vdd/2'  fall=1
 .measure  tran  tda_r_xor2   trig  v(a)  val='vdd/2'  td=45n   fall=1  targ  v(y)   val='vdd/2'  rise=1
 .measure  tran  tda_r_xor3   trig  v(a)  val='vdd/2'  td=85n   rise=1  targ  v(y)   val='vdd/2'  rise=1
 .measure  tran  tda_f_xor4   trig  v(a)  val='vdd/2'  td=115n  fall=1  targ  v(y)   val='vdd/2'  fall=1

 ***************************************************************************************
 ***************************************************************************************

 .measure  tran  tda_xor1   param='max(tda_f_xor1,tda_r_xor2)'
 .measure  tran  tda_xor2   param='max(tda_r_xor3,tda_f_xor4)'
 .measure  tran  tda_xor    param='max(tda_xor1,tda_xor2)'

 ***************************************************************************************
 ***************************************************************************************

 .measure  tran  tda_r_xnor1  trig  v(a)  val='vdd/2'  td=15n   rise=1  targ  v(yn)  val='vdd/2'  rise=1
 .measure  tran  tda_f_xnor2  trig  v(a)  val='vdd/2'  td=45n   fall=1  targ  v(yn)  val='vdd/2'  fall=1
 .measure  tran  tda_f_xnor3  trig  v(a)  val='vdd/2'  td=85n   rise=1  targ  v(yn)  val='vdd/2'  fall=1
 .measure  tran  tda_r_xnor4  trig  v(a)  val='vdd/2'  td=115n  fall=1  targ  v(yn)  val='vdd/2'  rise=1

 ***************************************************************************************
 ***************************************************************************************

 .measure  tran  tda_xnor1   param='max(tda_r_xnor1,tda_f_xnor2)'
 .measure  tran  tda_xnor2   param='max(tda_f_xnor3,tda_r_xnor4)'
 .measure  tran  tda_xnor    param='max(tda_xnor1,tda_xnor2)'

 ***************************************************************************************
 ***************************************************************************************

 .measure  tran  tdb_r_xor1   trig  v(b)  val='vdd/2'  td=5n   rise=1  targ  v(y)   val='vdd/2'  rise=1
 .measure  tran  tdb_r_xor2   trig  v(b)  val='vdd/2'  td=25n  fall=1  targ  v(y)   val='vdd/2'  rise=1
 .measure  tran  tdb_f_xor3   trig  v(b)  val='vdd/2'  td=35n  rise=1  targ  v(y)   val='vdd/2'  fall=1
 .measure  tran  tdb_f_xor4   trig  v(b)  val='vdd/2'  td=55n  fall=1  targ  v(y)   val='vdd/2'  fall=1

 ***************************************************************************************
 ***************************************************************************************

 .measure  tran  tdb_xor1   param='max(tdb_r_xor1,tdb_r_xor2)'
 .measure  tran  tdb_xor2   param='max(tdb_f_xor3,tdb_f_xor4)'
 .measure  tran  tdb_xor    param='max(tdb_xor1,tdb_xor2)'

 ***************************************************************************************
 ***************************************************************************************

 .measure  tran  tdb_f_xnor1  trig  v(b)  val='vdd/2'  td=5n   rise=1  targ  v(yn)  val='vdd/2'  fall=1
 .measure  tran  tdb_f_xnor2  trig  v(b)  val='vdd/2'  td=25n  fall=1  targ  v(yn)  val='vdd/2'  fall=1
 .measure  tran  tdb_r_xnor3  trig  v(b)  val='vdd/2'  td=35n  rise=1  targ  v(yn)  val='vdd/2'  rise=1
 .measure  tran  tdb_r_xnor4  trig  v(b)  val='vdd/2'  td=55n  fall=1  targ  v(yn)  val='vdd/2'  rise=1

 ***************************************************************************************
 ***************************************************************************************

 .measure  tran  tdb_xnor1   param='max(tdb_f_xnor1,tdb_f_xnor2)'
 .measure  tran  tdb_xnor2   param='max(tdb_r_xnor3,tdb_r_xnor4)'
 .measure  tran  tdb_xnor    param='max(tdb_xnor1,tdb_xnor2)'

 ***************************************************************************************
 ***************************************************************************************

 .measure  tran  tda  param='max(tda_xor,tda_xnor)'
 .measure  tran  tdb  param='max(tdb_xor,tdb_xnor)'
 .measure  tran  td   param='max(tda,tdb)'
 .measure  tran  pdp  param='td*average_power'
 ***************************************************************************************
 ***************************************************************************************

 .end

 ***********************************************************************
 ** runlvl is invoked, you can disable it by:
      a) Add option runlvl=0 to your current simulation job.
      b) Copy $installdir/hspice.ini to your HOME directory and
         customize it by adding option runlvl=0, which disables
         it for all of your simulation jobs.
      c) Re-invoke $installdir/bin/config program and unselect the
         option runlvl setting in box 'hspice.ini' which disables
         it for whole group simulation jobs.

 ** runlvl is invoked, some options are ignored or automatically set:
      Options below are automatically set(user setting will overwrite them):
      if runlvl=6,            .option bypass=0
      if runlvl=[1|2|3|4|5],  .option bypass=2

      Options below are ignored, they are replaced by automated algorithms:
        lvltim    dvdt      ft    fast   trtol  absvar  relvar
          relq  chgtol    dvtr    imin    itl3    rmax

 ** runlvl is invoked, actual option value used by HSPICE are:
       runlvl= 3       bypass= 2      mbypass=   2.00   bytol= 100.00u
 ***********************************************************************


 **warning** dc voltage reset to initial transient source value
             in source        0:va                  new dc=  0.0000D+00


 **warning** dc voltage reset to initial transient source value
             in source        0:van                 new dc=  0.1800D+01


 **warning** dc voltage reset to initial transient source value
             in source        0:vb                  new dc=  0.0000D+00

 

 Warning: Pd = 0 is less than W.
 Model:    0:pmos
 W = 6.5e-007, L = 1.3e-007

 
      

   *** parameter wmin             =    1.300E-07 ***

 ******  
 title                                                                          
  ******  transient analysis               tnom=  25.000 temp=  27.000          
 ******  
 average_power=   8.129198u  from=   0.            to= 130.000000n
 tda_f_xor1=  51.909126p  targ=  20.089452n   trig=  20.037543n
 tda_r_xor2=  75.943513p  targ=  50.111712n   trig=  50.035769n
 tda_r_xor3=  76.939362p  targ=  90.113220n   trig=  90.036280n
 tda_f_xor4=  44.208994p  targ= 120.080351n   trig= 120.036142n
 tda_xor1=  75.943513p
 tda_xor2=  76.939362p
 tda_xor=  76.939362p
 tda_r_xnor1=  17.957577p  targ=  20.055500n   trig=  20.037543n
 tda_f_xnor2=  29.132638p  targ=  50.064901n   trig=  50.035769n
 tda_f_xnor3=  30.444997p  targ=  90.066725n   trig=  90.036280n
 tda_r_xnor4= 134.185283p  targ= 120.170327n   trig= 120.036142n
 tda_xnor1=  29.132638p
 tda_xnor2= 134.185283p
 tda_xnor= 134.185283p
 tdb_r_xor1=  76.180615p  targ=  10.113192n   trig=  10.037011n
 tdb_r_xor2=  76.311248p  targ=  30.112121n   trig=  30.035810n
 tdb_f_xor3=  51.867089p  targ=  40.089416n   trig=  40.037549n
 tdb_f_xor4=  43.813306p  targ=  60.079939n   trig=  60.036125n
 tdb_xor1=  76.311248p
 tdb_xor2=  51.867089p
 tdb_xor=  76.311248p
 tdb_f_xnor1=  29.706229p  targ=  10.066718n   trig=  10.037011n
 tdb_f_xnor2=  29.320002p  targ=  30.065130n   trig=  30.035810n
 tdb_r_xnor3=  17.611694p  targ=  40.055160n   trig=  40.037549n
 tdb_r_xnor4= 134.308797p  targ=  60.170434n   trig=  60.036125n
 tdb_xnor1=  29.706229p
 tdb_xnor2= 134.308797p
 tdb_xnor= 134.308797p
 tda= 134.185283p
 tdb= 134.308797p
 td= 134.308797p
 pdp=   1.091823f

          ***** job concluded

   *** parameter wmin             =    1.310E-07 ***

 ******  
 title                                                                          
  ******  transient analysis               tnom=  25.000 temp=  27.000          
 ******  
 average_power=   8.143523u  from=   0.            to= 130.000000n
 tda_f_xor1=  51.592267p  targ=  20.089150n   trig=  20.037557n
 tda_r_xor2=  76.426827p  targ=  50.112016n   trig=  50.035590n
 tda_r_xor3=  76.555073p  targ=  90.112843n   trig=  90.036288n
 tda_f_xor4=  43.941512p  targ= 120.080093n   trig= 120.036152n
 tda_xor1=  76.426827p
 tda_xor2=  76.555073p
 tda_xor=  76.555073p
 tda_r_xnor1=  17.848626p  targ=  20.055406n   trig=  20.037557n
 tda_f_xnor2=  29.803172p  targ=  50.065393n   trig=  50.035590n
 tda_f_xnor3=  30.313854p  targ=  90.066601n   trig=  90.036288n
 tda_r_xnor4= 133.339079p  targ= 120.169491n   trig= 120.036152n
 tda_xnor1=  29.803172p
 tda_xnor2= 133.339079p
 tda_xnor= 133.339079p
 tdb_r_xor1=  75.794972p  targ=  10.112815n   trig=  10.037020n
 tdb_r_xor2=  75.956906p  targ=  30.111775n   trig=  30.035818n
 tdb_f_xor3=  51.559807p  targ=  40.089124n   trig=  40.037564n
 tdb_f_xor4=  43.335910p  targ=  60.079833n   trig=  60.036497n
 tdb_xor1=  75.956906p
 tdb_xor2=  51.559807p
 tdb_xor=  75.956906p
 tdb_f_xnor1=  29.586819p  targ=  10.066606n   trig=  10.037020n
 tdb_f_xnor2=  29.201448p  targ=  30.065020n   trig=  30.035818n
 tdb_r_xnor3=  17.509175p  targ=  40.055073n   trig=  40.037564n
 tdb_r_xnor4= 133.234377p  targ=  60.169732n   trig=  60.036497n
 tdb_xnor1=  29.586819p
 tdb_xnor2= 133.234377p
 tdb_xnor= 133.234377p
 tda= 133.339079p
 tdb= 133.234377p
 td= 133.339079p
 pdp=   1.085850f

          ***** job concluded

   *** parameter wmin             =    1.320E-07 ***

 ******  
 title                                                                          
  ******  transient analysis               tnom=  25.000 temp=  27.000          
 ******  
 average_power=   8.125789u  from=   0.            to= 130.000000n
 tda_f_xor1=  51.279465p  targ=  20.088852n   trig=  20.037572n
 tda_r_xor2=  76.049991p  targ=  50.111648n   trig=  50.035598n
 tda_r_xor3=  76.176379p  targ=  90.112471n   trig=  90.036295n
 tda_f_xor4=  43.675792p  targ= 120.079837n   trig= 120.036161n
 tda_xor1=  76.049991p
 tda_xor2=  76.176379p
 tda_xor=  76.176379p
 tda_r_xnor1=  17.740369p  targ=  20.055312n   trig=  20.037572n
 tda_f_xnor2=  29.685560p  targ=  50.065283n   trig=  50.035598n
 tda_f_xnor3=  30.184523p  targ=  90.066480n   trig=  90.036295n
 tda_r_xnor4= 132.506526p  targ= 120.168668n   trig= 120.036161n
 tda_xnor1=  29.685560p
 tda_xnor2= 132.506526p
 tda_xnor= 132.506526p
 tdb_r_xor1=  75.416662p  targ=  10.112444n   trig=  10.037028n
 tdb_r_xor2=  75.607405p  targ=  30.111434n   trig=  30.035827n
 tdb_f_xor3=  51.256841p  targ=  40.088837n   trig=  40.037580n
 tdb_f_xor4=  43.203819p  targ=  60.079349n   trig=  60.036145n
 tdb_xor1=  75.607405p
 tdb_xor2=  51.256841p
 tdb_xor=  75.607405p
 tdb_f_xnor1=  29.469211p  targ=  10.066497n   trig=  10.037028n
 tdb_f_xnor2=  29.084744p  targ=  30.064911n   trig=  30.035827n
 tdb_r_xnor3=  17.407700p  targ=  40.054988n   trig=  40.037580n
 tdb_r_xnor4= 132.667231p  targ=  60.168812n   trig=  60.036145n
 tdb_xnor1=  29.469211p
 tdb_xnor2= 132.667231p
 tdb_xnor= 132.667231p
 tda= 132.506526p
 tdb= 132.667231p
 td= 132.667231p
 pdp=   1.078026f

          ***** job concluded

   *** parameter wmin             =    1.330E-07 ***

 ******  
 title                                                                          
  ******  transient analysis               tnom=  25.000 temp=  27.000          
 ******  
 average_power=   8.125787u  from=   0.            to= 130.000000n
 tda_f_xor1=  50.970574p  targ=  20.088557n   trig=  20.037587n
 tda_r_xor2=  75.679371p  targ=  50.111285n   trig=  50.035606n
 tda_r_xor3=  75.803265p  targ=  90.112106n   trig=  90.036302n
 tda_f_xor4=  43.411816p  targ= 120.079583n   trig= 120.036171n
 tda_xor1=  75.679371p
 tda_xor2=  75.803265p
 tda_xor=  75.803265p
 tda_r_xnor1=  17.632790p  targ=  20.055220n   trig=  20.037587n
 tda_f_xnor2=  29.569822p  targ=  50.065176n   trig=  50.035606n
 tda_f_xnor3=  30.056963p  targ=  90.066359n   trig=  90.036302n
 tda_r_xnor4= 131.687276p  targ= 120.167858n   trig= 120.036171n
 tda_xnor1=  29.569822p
 tda_xnor2= 131.687276p
 tda_xnor= 131.687276p
 tdb_r_xor1=  75.045000p  targ=  10.112081n   trig=  10.037036n
 tdb_r_xor2=  75.262577p  targ=  30.111098n   trig=  30.035835n
 tdb_f_xor3=  50.957989p  targ=  40.088554n   trig=  40.037596n
 tdb_f_xor4=  42.898357p  targ=  60.079053n   trig=  60.036155n
 tdb_xor1=  75.262577p
 tdb_xor2=  50.957989p
 tdb_xor=  75.262577p
 tdb_f_xnor1=  29.353368p  targ=  10.066389n   trig=  10.037036n
 tdb_f_xnor2=  28.969791p  targ=  30.064805n   trig=  30.035835n
 tdb_r_xnor3=  17.307264p  targ=  40.054903n   trig=  40.037596n
 tdb_r_xnor4= 131.868323p  targ=  60.168023n   trig=  60.036155n
 tdb_xnor1=  29.353368p
 tdb_xnor2= 131.868323p
 tdb_xnor= 131.868323p
 tda= 131.687276p
 tdb= 131.868323p
 td= 131.868323p
 pdp=   1.071534f

          ***** job concluded

   *** parameter wmin             =    1.340E-07 ***

 ******  
 title                                                                          
  ******  transient analysis               tnom=  25.000 temp=  27.000          
 ******  
 average_power=   8.124878u  from=   0.            to= 130.000000n
 tda_f_xor1=  50.665410p  targ=  20.088267n   trig=  20.037601n
 tda_r_xor2=  75.314828p  targ=  50.110929n   trig=  50.035614n
 tda_r_xor3=  75.435688p  targ=  90.111745n   trig=  90.036310n
 tda_f_xor4=  43.149534p  targ= 120.079330n   trig= 120.036180n
 tda_xor1=  75.314828p
 tda_xor2=  75.435688p
 tda_xor=  75.435688p
 tda_r_xnor1=  17.525872p  targ=  20.055127n   trig=  20.037601n
 tda_f_xnor2=  29.455866p  targ=  50.065070n   trig=  50.035614n
 tda_f_xnor3=  29.931131p  targ=  90.066241n   trig=  90.036310n
 tda_r_xnor4= 130.880973p  targ= 120.167061n   trig= 120.036180n
 tda_xnor1=  29.455866p
 tda_xnor2= 130.880973p
 tda_xnor= 130.880973p
 tdb_r_xor1=  74.679994p  targ=  10.111724n   trig=  10.037044n
 tdb_r_xor2=  74.922278p  targ=  30.110766n   trig=  30.035843n
 tdb_f_xor3=  50.663036p  targ=  40.088274n   trig=  40.037611n
 tdb_f_xor4=  42.593756p  targ=  60.078759n   trig=  60.036165n
 tdb_xor1=  74.922278p
 tdb_xor2=  50.663036p
 tdb_xor=  74.922278p
 tdb_f_xnor1=  29.239249p  targ=  10.066283n   trig=  10.037044n
 tdb_f_xnor2=  28.856554p  targ=  30.064700n   trig=  30.035843n
 tdb_r_xnor3=  17.207839p  targ=  40.054819n   trig=  40.037611n
 tdb_r_xnor4= 131.084041p  targ=  60.167249n   trig=  60.036165n
 tdb_xnor1=  29.239249p
 tdb_xnor2= 131.084041p
 tdb_xnor= 131.084041p
 tda= 130.880973p
 tdb= 131.084041p
 td= 131.084041p
 pdp=   1.065042f

          ***** job concluded

   *** parameter wmin             =    1.350E-07 ***

 ******  
 title                                                                          
  ******  transient analysis               tnom=  25.000 temp=  27.000          
 ******  
 average_power=   8.122831u  from=   0.            to= 130.000000n
 tda_f_xor1=  50.363751p  targ=  20.087980n   trig=  20.037616n
 tda_r_xor2=  74.955991p  targ=  50.110578n   trig=  50.035622n
 tda_r_xor3=  75.073600p  targ=  90.111391n   trig=  90.036317n
 tda_f_xor4=  42.888909p  targ= 120.079079n   trig= 120.036190n
 tda_xor1=  74.955991p
 tda_xor2=  75.073600p
 tda_xor=  75.073600p
 tda_r_xnor1=  17.419602p  targ=  20.055036n   trig=  20.037616n
 tda_f_xnor2=  29.343676p  targ=  50.064966n   trig=  50.035622n
 tda_f_xnor3=  29.806989p  targ=  90.066124n   trig=  90.036317n
 tda_r_xnor4= 130.087289p  targ= 120.166277n   trig= 120.036190n
 tda_xnor1=  29.343676p
 tda_xnor2= 130.087289p
 tda_xnor= 130.087289p
 tdb_r_xor1=  74.321444p  targ=  10.111374n   trig=  10.037052n
 tdb_r_xor2=  74.586329p  targ=  30.110438n   trig=  30.035852n
 tdb_f_xor3=  50.370079p  targ=  40.087997n   trig=  40.037627n
 tdb_f_xor4=  42.290054p  targ=  60.078465n   trig=  60.036175n
 tdb_xor1=  74.586329p
 tdb_xor2=  50.370079p
 tdb_xor=  74.586329p
 tdb_f_xnor1=  29.126819p  targ=  10.066179n   trig=  10.037052n
 tdb_f_xnor2=  28.744891p  targ=  30.064597n   trig=  30.035852n
 tdb_r_xnor3=  17.109417p  targ=  40.054736n   trig=  40.037627n
 tdb_r_xnor4= 130.313171p  targ=  60.166488n   trig=  60.036175n
 tdb_xnor1=  29.126819p
 tdb_xnor2= 130.313171p
 tdb_xnor= 130.313171p
 tda= 130.087289p
 tdb= 130.313171p
 td= 130.313171p
 pdp=   1.058512f

          ***** job concluded

   *** parameter wmin             =    1.360E-07 ***

 ******  
 title                                                                          
  ******  transient analysis               tnom=  25.000 temp=  27.000          
 ******  
 average_power=   8.121614u  from=   0.            to= 130.000000n
 tda_f_xor1=  50.027675p  targ=  20.087665n   trig=  20.037638n
 tda_r_xor2=  74.600832p  targ=  50.110231n   trig=  50.035630n
 tda_r_xor3=  74.716949p  targ=  90.111042n   trig=  90.036325n
 tda_f_xor4=  42.629902p  targ= 120.078829n   trig= 120.036199n
 tda_xor1=  74.600832p
 tda_xor2=  74.716949p
 tda_xor=  74.716949p
 tda_r_xnor1=  17.230675p  targ=  20.054868n   trig=  20.037638n
 tda_f_xnor2=  29.233158p  targ=  50.064863n   trig=  50.035630n
 tda_f_xnor3=  29.684498p  targ=  90.066009n   trig=  90.036325n
 tda_r_xnor4= 129.305912p  targ= 120.165505n   trig= 120.036199n
 tda_xnor1=  29.233158p
 tda_xnor2= 129.305912p
 tda_xnor= 129.305912p
 tdb_r_xor1=  73.969082p  targ=  10.111030n   trig=  10.037060n
 tdb_r_xor2=  74.254798p  targ=  30.110115n   trig=  30.035860n
 tdb_f_xor3=  50.078732p  targ=  40.087721n   trig=  40.037643n
 tdb_f_xor4=  41.987167p  targ=  60.078172n   trig=  60.036184n
 tdb_xor1=  74.254798p
 tdb_xor2=  50.078732p
 tdb_xor=  74.254798p
 tdb_f_xnor1=  29.015979p  targ=  10.066076n   trig=  10.037060n
 tdb_f_xnor2=  28.634964p  targ=  30.064495n   trig=  30.035860n
 tdb_r_xnor3=  17.011971p  targ=  40.054655n   trig=  40.037643n
 tdb_r_xnor4= 129.555891p  targ=  60.165740n   trig=  60.036184n
 tdb_xnor1=  29.015979p
 tdb_xnor2= 129.555891p
 tdb_xnor= 129.555891p
 tda= 129.305912p
 tdb= 129.555891p
 td= 129.555891p
 pdp=   1.052203f

          ***** job concluded

   *** parameter wmin             =    1.370E-07 ***

 ******  
 title                                                                          
  ******  transient analysis               tnom=  25.000 temp=  27.000          
 ******  
 average_power=   8.119586u  from=   0.            to= 130.000000n
 tda_f_xor1=  49.784063p  targ=  20.087429n   trig=  20.037645n
 tda_r_xor2=  74.251621p  targ=  50.109890n   trig=  50.035638n
 tda_r_xor3=  74.365682p  targ=  90.110698n   trig=  90.036332n
 tda_f_xor4=  42.372477p  targ= 120.078581n   trig= 120.036209n
 tda_xor1=  74.251621p
 tda_xor2=  74.365682p
 tda_xor=  74.365682p
 tda_r_xnor1=  17.208958p  targ=  20.054854n   trig=  20.037645n
 tda_f_xnor2=  29.124386p  targ=  50.064763n   trig=  50.035638n
 tda_f_xnor3=  29.563619p  targ=  90.065896n   trig=  90.036332n
 tda_r_xnor4= 128.536550p  targ= 120.164745n   trig= 120.036209n
 tda_xnor1=  29.124386p
 tda_xnor2= 128.536550p
 tda_xnor= 128.536550p
 tdb_r_xor1=  73.622878p  targ=  10.110692n   trig=  10.037069n
 tdb_r_xor2=  73.926473p  targ=  30.109795n   trig=  30.035869n
 tdb_f_xor3=  49.790991p  targ=  40.087449n   trig=  40.037658n
 tdb_f_xor4=  41.685089p  targ=  60.077879n   trig=  60.036194n
 tdb_xor1=  73.926473p
 tdb_xor2=  49.790991p
 tdb_xor=  73.926473p
 tdb_f_xnor1=  28.906819p  targ=  10.065975n   trig=  10.037069n
 tdb_f_xnor2=  28.526663p  targ=  30.064395n   trig=  30.035869n
 tdb_r_xnor3=  16.915476p  targ=  40.054574n   trig=  40.037658n
 tdb_r_xnor4= 128.810953p  targ=  60.165005n   trig=  60.036194n
 tdb_xnor1=  28.906819p
 tdb_xnor2= 128.810953p
 tdb_xnor= 128.810953p
 tda= 128.536550p
 tdb= 128.810953p
 td= 128.810953p
 pdp=   1.045892f

          ***** job concluded

   *** parameter wmin             =    1.380E-07 ***

 ******  
 title                                                                          
  ******  transient analysis               tnom=  25.000 temp=  27.000          
 ******  
 average_power=   8.118564u  from=   0.            to= 130.000000n
 tda_f_xor1=  49.503099p  targ=  20.087163n   trig=  20.037660n
 tda_r_xor2=  73.908158p  targ=  50.109554n   trig=  50.035646n
 tda_r_xor3=  74.019740p  targ=  90.110359n   trig=  90.036339n
 tda_f_xor4=  42.116597p  targ= 120.078335n   trig= 120.036218n
 tda_xor1=  73.908158p
 tda_xor2=  74.019740p
 tda_xor=  74.019740p
 tda_r_xnor1=  17.104546p  targ=  20.054764n   trig=  20.037660n
 tda_f_xnor2=  29.017271p  targ=  50.064664n   trig=  50.035646n
 tda_f_xnor3=  29.444316p  targ=  90.065784n   trig=  90.036339n
 tda_r_xnor4= 127.778925p  targ= 120.163997n   trig= 120.036218n
 tda_xnor1=  29.017271p
 tda_xnor2= 127.778925p
 tda_xnor= 127.778925p
 tdb_r_xor1=  73.282571p  targ=  10.110359n   trig=  10.037077n
 tdb_r_xor2=  73.274317p  targ=  30.109593n   trig=  30.036319n
 tdb_f_xor3=  49.506756p  targ=  40.087181n   trig=  40.037674n
 tdb_f_xor4=  41.452199p  targ=  60.077656n   trig=  60.036204n
 tdb_xor1=  73.282571p
 tdb_xor2=  49.506756p
 tdb_xor=  73.282571p
 tdb_f_xnor1=  28.799243p  targ=  10.065876n   trig=  10.037077n
 tdb_f_xnor2=  28.057319p  targ=  30.064376n   trig=  30.036319n
 tdb_r_xnor3=  16.819925p  targ=  40.054494n   trig=  40.037674n
 tdb_r_xnor4= 128.077535p  targ=  60.164281n   trig=  60.036204n
 tdb_xnor1=  28.799243p
 tdb_xnor2= 128.077535p
 tdb_xnor= 128.077535p
 tda= 127.778925p
 tdb= 128.077535p
 td= 128.077535p
 pdp=   1.039806f

          ***** job concluded

   *** parameter wmin             =    1.390E-07 ***

 ******  
 title                                                                          
  ******  transient analysis               tnom=  25.000 temp=  27.000          
 ******  
 average_power=   8.108432u  from=   0.            to= 130.000000n
 tda_f_xor1=  49.226656p  targ=  20.086901n   trig=  20.037674n
 tda_r_xor2=  73.401004p  targ=  50.109073n   trig=  50.035672n
 tda_r_xor3=  73.679064p  targ=  90.110026n   trig=  90.036347n
 tda_f_xor4=  41.862229p  targ= 120.078090n   trig= 120.036228n
 tda_xor1=  73.401004p
 tda_xor2=  73.679064p
 tda_xor=  73.679064p
 tda_r_xnor1=  17.000729p  targ=  20.054675n   trig=  20.037674n
 tda_f_xnor2=  28.807046p  targ=  50.064479n   trig=  50.035672n
 tda_f_xnor3=  29.326555p  targ=  90.065673n   trig=  90.036347n
 tda_r_xnor4= 127.032776p  targ= 120.163261n   trig= 120.036228n
 tda_xnor1=  28.807046p
 tda_xnor2= 127.032776p
 tda_xnor= 127.032776p
 tdb_r_xor1=  72.947983p  targ=  10.110033n   trig=  10.037085n
 tdb_r_xor2=  73.277816p  targ=  30.109163n   trig=  30.035885n
 tdb_f_xor3=  49.337907p  targ=  40.086930n   trig=  40.037592n
 tdb_f_xor4=  41.265908p  targ=  60.077479n   trig=  60.036214n
 tdb_xor1=  73.277816p
 tdb_xor2=  49.337907p
 tdb_xor=  73.277816p
 tdb_f_xnor1=  28.693216p  targ=  10.065778n   trig=  10.037085n
 tdb_f_xnor2=  28.314717p  targ=  30.064200n   trig=  30.035885n
 tdb_r_xnor3=  16.607907p  targ=  40.054200n   trig=  40.037592n
 tdb_r_xnor4= 127.354839p  targ=  60.163568n   trig=  60.036214n
 tdb_xnor1=  28.693216p
 tdb_xnor2= 127.354839p
 tdb_xnor= 127.354839p
 tda= 127.032776p
 tdb= 127.354839p
 td= 127.354839p
 pdp=   1.032648f

          ***** job concluded

   *** parameter wmin             =    1.400E-07 ***

 ******  
 title                                                                          
  ******  transient analysis               tnom=  25.000 temp=  27.000          
 ******  
 average_power=   8.112577u  from=   0.            to= 130.000000n
 tda_f_xor1=  48.954633p  targ=  20.086644n   trig=  20.037689n
 tda_r_xor2=  73.237890p  targ=  50.108900n   trig=  50.035662n
 tda_r_xor3=  73.343590p  targ=  90.109698n   trig=  90.036354n
 tda_f_xor4=  41.609341p  targ= 120.077847n   trig= 120.036237n
 tda_xor1=  73.237890p
 tda_xor2=  73.343590p
 tda_xor=  73.343590p
 tda_r_xnor1=  16.897495p  targ=  20.054586n   trig=  20.037689n
 tda_f_xnor2=  28.807858p  targ=  50.064470n   trig=  50.035662n
 tda_f_xnor3=  29.210306p  targ=  90.065564n   trig=  90.036354n
 tda_r_xnor4= 126.297854p  targ= 120.162535n   trig= 120.036237n
 tda_xnor1=  28.807858p
 tda_xnor2= 126.297854p
 tda_xnor= 126.297854p
 tdb_r_xor1=  72.618939p  targ=  10.109712n   trig=  10.037093n
 tdb_r_xor2=  72.960230p  targ=  30.108854n   trig=  30.035894n
 tdb_f_xor3=  48.860140p  targ=  40.086840n   trig=  40.037980n
 tdb_f_xor4=  41.080888p  targ=  60.077304n   trig=  60.036223n
 tdb_xor1=  72.960230p
 tdb_xor2=  48.860140p
 tdb_xor=  72.960230p
 tdb_f_xnor1=  28.588705p  targ=  10.065682n   trig=  10.037093n
 tdb_f_xnor2=  28.211030p  targ=  30.064105n   trig=  30.035894n
 tdb_r_xnor3=  16.434029p  targ=  40.054414n   trig=  40.037980n
 tdb_r_xnor4= 126.642226p  targ=  60.162866n   trig=  60.036223n
 tdb_xnor1=  28.588705p
 tdb_xnor2= 126.642226p
 tdb_xnor= 126.642226p
 tda= 126.297854p
 tdb= 126.642226p
 td= 126.642226p
 pdp=   1.027395f

          ***** job concluded

   *** parameter wmin             =    1.410E-07 ***

 ******  
 title                                                                          
  ******  transient analysis               tnom=  25.000 temp=  27.000          
 ******  
 average_power=   8.102083u  from=   0.            to= 130.000000n
 tda_f_xor1=  48.686927p  targ=  20.086390n   trig=  20.037703n
 tda_r_xor2=  72.910910p  targ=  50.108581n   trig=  50.035670n
 tda_r_xor3=  73.013249p  targ=  90.109375n   trig=  90.036361n
 tda_f_xor4=  41.357899p  targ= 120.077605n   trig= 120.036247n
 tda_xor1=  72.910910p
 tda_xor2=  73.013249p
 tda_xor=  73.013249p
 tda_r_xnor1=  16.794829p  targ=  20.054498n   trig=  20.037703n
 tda_f_xnor2=  28.705579p  targ=  50.064376n   trig=  50.035670n
 tda_f_xnor3=  29.095530p  targ=  90.065457n   trig=  90.036361n
 tda_r_xnor4= 125.573927p  targ= 120.161821n   trig= 120.036247n
 tda_xnor1=  28.705579p
 tda_xnor2= 125.573927p
 tda_xnor= 125.573927p
 tdb_r_xor1=  72.295265p  targ=  10.109397n   trig=  10.037101n
 tdb_r_xor2=  72.646969p  targ=  30.108549n   trig=  30.035902n
 tdb_f_xor3=  48.673910p  targ=  40.086395n   trig=  40.037721n
 tdb_f_xor4=  40.896962p  targ=  60.077130n   trig=  60.036233n
 tdb_xor1=  72.646969p
 tdb_xor2=  48.673910p
 tdb_xor=  72.646969p
 tdb_f_xnor1=  28.485679p  targ=  10.065587n   trig=  10.037101n
 tdb_f_xnor2=  28.108814p  targ=  30.064011n   trig=  30.035902n
 tdb_r_xnor3=  16.538629p  targ=  40.054259n   trig=  40.037721n
 tdb_r_xnor4= 125.870354p  targ=  60.162103n   trig=  60.036233n
 tdb_xnor1=  28.485679p
 tdb_xnor2= 125.870354p
 tdb_xnor= 125.870354p
 tda= 125.573927p
 tdb= 125.870354p
 td= 125.870354p
 pdp=   1.019812f

          ***** job concluded

   *** parameter wmin             =    1.420E-07 ***

 ******  
 title                                                                          
  ******  transient analysis               tnom=  25.000 temp=  27.000          
 ******  
 average_power=   8.101491u  from=   0.            to= 130.000000n
 tda_f_xor1=  48.423443p  targ=  20.086141n   trig=  20.037718n
 tda_r_xor2=  71.841071p  targ=  50.107677n   trig=  50.035836n
 tda_r_xor3=  72.687973p  targ=  90.109057n   trig=  90.036369n
 tda_f_xor4=  41.107875p  targ= 120.077364n   trig= 120.036256n
 tda_xor1=  71.841071p
 tda_xor2=  72.687973p
 tda_xor=  72.687973p
 tda_r_xnor1=  16.692722p  targ=  20.054411n   trig=  20.037718n
 tda_f_xnor2=  27.848194p  targ=  50.063684n   trig=  50.035836n
 tda_f_xnor3=  28.982199p  targ=  90.065351n   trig=  90.036369n
 tda_r_xnor4= 124.860779p  targ= 120.161117n   trig= 120.036256n
 tda_xnor1=  27.848194p
 tda_xnor2= 124.860779p
 tda_xnor= 124.860779p
 tdb_r_xor1=  71.976789p  targ=  10.109086n   trig=  10.037109n
 tdb_r_xor2=  72.337922p  targ=  30.108248n   trig=  30.035910n
 tdb_f_xor3=  48.402598p  targ=  40.086139n   trig=  40.037736n
 tdb_f_xor4=  40.714083p  targ=  60.076957n   trig=  60.036243n
 tdb_xor1=  72.337922p
 tdb_xor2=  48.402598p
 tdb_xor=  72.337922p
 tdb_f_xnor1=  28.384106p  targ=  10.065494n   trig=  10.037109n
 tdb_f_xnor2=  28.008039p  targ=  30.063918n   trig=  30.035910n
 tdb_r_xnor3=  16.446645p  targ=  40.054183n   trig=  40.037736n
 tdb_r_xnor4= 125.106386p  targ=  60.161349n   trig=  60.036243n
 tdb_xnor1=  28.384106p
 tdb_xnor2= 125.106386p
 tdb_xnor= 125.106386p
 tda= 124.860779p
 tdb= 125.106386p
 td= 125.106386p
 pdp=   1.013548f

          ***** job concluded

   *** parameter wmin             =    1.430E-07 ***

 ******  
 title                                                                          
  ******  transient analysis               tnom=  25.000 temp=  27.000          
 ******  
 average_power=   8.103936u  from=   0.            to= 130.000000n
 tda_f_xor1=  48.164153p  targ=  20.085897n   trig=  20.037732n
 tda_r_xor2=  72.272263p  targ=  50.107959n   trig=  50.035686n
 tda_r_xor3=  72.367690p  targ=  90.108744n   trig=  90.036376n
 tda_f_xor4=  40.859235p  targ= 120.077125n   trig= 120.036266n
 tda_xor1=  72.272263p
 tda_xor2=  72.367690p
 tda_xor=  72.367690p
 tda_r_xnor1=  16.591162p  targ=  20.054324n   trig=  20.037732n
 tda_f_xnor2=  28.505381p  targ=  50.064192n   trig=  50.035686n
 tda_f_xnor3=  28.870281p  targ=  90.065246n   trig=  90.036376n
 tda_r_xnor4= 124.158210p  targ= 120.160424n   trig= 120.036266n
 tda_xnor1=  28.505381p
 tda_xnor2= 124.158210p
 tda_xnor= 124.158210p
 tdb_r_xor1=  71.663337p  targ=  10.108781n   trig=  10.037118n
 tdb_r_xor2=  72.033841p  targ=  30.107952n   trig=  30.035919n
 tdb_f_xor3=  48.134268p  targ=  40.085886n   trig=  40.037752n
 tdb_f_xor4=  40.532408p  targ=  60.076785n   trig=  60.036252n
 tdb_xor1=  72.033841p
 tdb_xor2=  48.134268p
 tdb_xor=  72.033841p
 tdb_f_xnor1=  28.283956p  targ=  10.065402n   trig=  10.037118n
 tdb_f_xnor2=  27.905597p  targ=  30.063824n   trig=  30.035919n
 tdb_r_xnor3=  16.355514p  targ=  40.054107n   trig=  40.037752n
 tdb_r_xnor4= 124.356632p  targ=  60.160609n   trig=  60.036252n
 tdb_xnor1=  28.283956p
 tdb_xnor2= 124.356632p
 tdb_xnor= 124.356632p
 tda= 124.158210p
 tdb= 124.356632p
 td= 124.356632p
 pdp=   1.007778f

          ***** job concluded

   *** parameter wmin             =    1.440E-07 ***

 ******  
 title                                                                          
  ******  transient analysis               tnom=  25.000 temp=  27.000          
 ******  
 average_power=   8.097090u  from=   0.            to= 130.000000n
 tda_f_xor1=  47.908917p  targ=  20.085656n   trig=  20.037747n
 tda_r_xor2=  71.960452p  targ=  50.107655n   trig=  50.035694n
 tda_r_xor3=  72.052323p  targ=  90.108436n   trig=  90.036384n
 tda_f_xor4=  40.611952p  targ= 120.076887n   trig= 120.036275n
 tda_xor1=  71.960452p
 tda_xor2=  72.052323p
 tda_xor=  72.052323p
 tda_r_xnor1=  16.490142p  targ=  20.054237n   trig=  20.037747n
 tda_f_xnor2=  28.407506p  targ=  50.064102n   trig=  50.035694n
 tda_f_xnor3=  28.759749p  targ=  90.065143n   trig=  90.036384n
 tda_r_xnor4= 123.466047p  targ= 120.159741n   trig= 120.036275n
 tda_xnor1=  28.407506p
 tda_xnor2= 123.466047p
 tda_xnor= 123.466047p
 tdb_r_xor1=  71.354734p  targ=  10.108481n   trig=  10.037126n
 tdb_r_xor2=  71.732589p  targ=  30.107659n   trig=  30.035927n
 tdb_f_xor3=  47.868820p  targ=  40.085636n   trig=  40.037767n
 tdb_f_xor4=  40.351708p  targ=  60.076613n   trig=  60.036262n
 tdb_xor1=  71.732589p
 tdb_xor2=  47.868820p
 tdb_xor=  71.732589p
 tdb_f_xnor1=  28.185199p  targ=  10.065311n   trig=  10.037126n
 tdb_f_xnor2=  27.807672p  targ=  30.063735n   trig=  30.035927n
 tdb_r_xnor3=  16.265219p  targ=  40.054032n   trig=  40.037767n
 tdb_r_xnor4= 123.621671p  targ=  60.159883n   trig=  60.036262n
 tdb_xnor1=  28.185199p
 tdb_xnor2= 123.621671p
 tdb_xnor= 123.621671p
 tda= 123.466047p
 tdb= 123.621671p
 td= 123.621671p
 pdp=   1.000976f

          ***** job concluded

   *** parameter wmin             =    1.450E-07 ***

 ******  
 title                                                                          
  ******  transient analysis               tnom=  25.000 temp=  27.000          
 ******  
 average_power=   8.089532u  from=   0.            to= 130.000000n
 tda_f_xor1=  47.657647p  targ=  20.085419n   trig=  20.037761n
 tda_r_xor2=  71.653472p  targ=  50.107356n   trig=  50.035702n
 tda_r_xor3=  71.741793p  targ=  90.108133n   trig=  90.036391n
 tda_f_xor4=  40.365999p  targ= 120.076651n   trig= 120.036285n
 tda_xor1=  71.653472p
 tda_xor2=  71.741793p
 tda_xor=  71.741793p
 tda_r_xnor1=  16.389650p  targ=  20.054151n   trig=  20.037761n
 tda_f_xnor2=  28.311057p  targ=  50.064013n   trig=  50.035702n
 tda_f_xnor3=  28.650572p  targ=  90.065042n   trig=  90.036391n
 tda_r_xnor4= 122.784140p  targ= 120.159069n   trig= 120.036285n
 tda_xnor1=  28.311057p
 tda_xnor2= 122.784140p
 tda_xnor= 122.784140p
 tdb_r_xor1=  71.050801p  targ=  10.108185n   trig=  10.037134n
 tdb_r_xor2=  71.435259p  targ=  30.107370n   trig=  30.035935n
 tdb_f_xor3=  47.606163p  targ=  40.085389n   trig=  40.037783n
 tdb_f_xor4=  40.172033p  targ=  60.076443n   trig=  60.036271n
 tdb_xor1=  71.435259p
 tdb_xor2=  47.606163p
 tdb_xor=  71.435259p
 tdb_f_xnor1=  28.087805p  targ=  10.065222n   trig=  10.037134n
 tdb_f_xnor2=  27.711074p  targ=  30.063646n   trig=  30.035935n
 tdb_r_xnor3=  16.175744p  targ=  40.053958n   trig=  40.037783n
 tdb_r_xnor4= 122.901703p  targ=  60.159173n   trig=  60.036271n
 tdb_xnor1=  28.087805p
 tdb_xnor2= 122.901703p
 tdb_xnor= 122.901703p
 tda= 122.784140p
 tdb= 122.901703p
 td= 122.901703p
 pdp= 994.217279a

          ***** job concluded

   *** parameter wmin             =    1.460E-07 ***

 ******  
 title                                                                          
  ******  transient analysis               tnom=  25.000 temp=  27.000          
 ******  
 average_power=   8.093484u  from=   0.            to= 130.000000n
 tda_f_xor1=  47.410254p  targ=  20.085186n   trig=  20.037776n
 tda_r_xor2=  71.351223p  targ=  50.107062n   trig=  50.035710n
 tda_r_xor3=  71.436020p  targ=  90.107834n   trig=  90.036398n
 tda_f_xor4=  40.121350p  targ= 120.076415n   trig= 120.036294n
 tda_xor1=  71.351223p
 tda_xor2=  71.436020p
 tda_xor=  71.436020p
 tda_r_xnor1=  16.289678p  targ=  20.054065n   trig=  20.037776n
 tda_f_xnor2=  28.216016p  targ=  50.063926n   trig=  50.035710n
 tda_f_xnor3=  28.549230p  targ=  90.064948n   trig=  90.036398n
 tda_r_xnor4= 122.112369p  targ= 120.158406n   trig= 120.036294n
 tda_xnor1=  28.216016p
 tda_xnor2= 122.112369p
 tda_xnor= 122.112369p
 tdb_r_xor1=  70.774936p  targ=  10.107917n   trig=  10.037142n
 tdb_r_xor2=  71.141771p  targ=  30.107085n   trig=  30.035943n
 tdb_f_xor3=  47.348292p  targ=  40.085146n   trig=  40.037798n
 tdb_f_xor4=  39.993352p  targ=  60.076274n   trig=  60.036281n
 tdb_xor1=  71.141771p
 tdb_xor2=  47.348292p
 tdb_xor=  71.141771p
 tdb_f_xnor1=  27.991747p  targ=  10.065134n   trig=  10.037142n
 tdb_f_xnor2=  27.615782p  targ=  30.063559n   trig=  30.035943n
 tdb_r_xnor3=  16.087075p  targ=  40.053885n   trig=  40.037798n
 tdb_r_xnor4= 122.196285p  targ=  60.158477n   trig=  60.036281n
 tdb_xnor1=  27.991747p
 tdb_xnor2= 122.196285p
 tdb_xnor= 122.196285p
 tda= 122.112369p
 tdb= 122.196285p
 td= 122.196285p
 pdp= 988.993651a

          ***** job concluded

   *** parameter wmin             =    1.470E-07 ***

 ******  
 title                                                                          
  ******  transient analysis               tnom=  25.000 temp=  27.000          
 ******  
 average_power=   8.089882u  from=   0.            to= 130.000000n
 tda_f_xor1=  47.166649p  targ=  20.084957n   trig=  20.037790n
 tda_r_xor2=  71.055997p  targ=  50.106774n   trig=  50.035718n
 tda_r_xor3=  71.134917p  targ=  90.107541n   trig=  90.036406n
 tda_f_xor4=  39.877975p  targ= 120.076181n   trig= 120.036303n
 tda_xor1=  71.055997p
 tda_xor2=  71.134917p
 tda_xor=  71.134917p
 tda_r_xnor1=  16.190218p  targ=  20.053980n   trig=  20.037790n
 tda_f_xnor2=  28.124248p  targ=  50.063842n   trig=  50.035718n
 tda_f_xnor3=  28.454732p  targ=  90.064860n   trig=  90.036406n
 tda_r_xnor4= 121.450642p  targ= 120.157754n   trig= 120.036303n
 tda_xnor1=  28.124248p
 tda_xnor2= 121.450642p
 tda_xnor= 121.450642p
 tdb_r_xor1=  70.507082p  targ=  10.107657n   trig=  10.037150n
 tdb_r_xor2=  70.852043p  targ=  30.106804n   trig=  30.035952n
 tdb_f_xor3=  47.094069p  targ=  40.084907n   trig=  40.037813n
 tdb_f_xor4=  39.815641p  targ=  60.076106n   trig=  60.036290n
 tdb_xor1=  70.852043p
 tdb_xor2=  47.094069p
 tdb_xor=  70.852043p
 tdb_f_xnor1=  27.896996p  targ=  10.065047n   trig=  10.037150n
 tdb_f_xnor2=  27.521761p  targ=  30.063473n   trig=  30.035952n
 tdb_r_xnor3=  15.999198p  targ=  40.053813n   trig=  40.037813n
 tdb_r_xnor4= 121.505469p  targ=  60.157796n   trig=  60.036290n
 tdb_xnor1=  27.896996p
 tdb_xnor2= 121.505469p
 tdb_xnor= 121.505469p
 tda= 121.450642p
 tdb= 121.505469p
 td= 121.505469p
 pdp= 982.964923a

          ***** job concluded

   *** parameter wmin             =    1.480E-07 ***

 ******  
 title                                                                          
  ******  transient analysis               tnom=  25.000 temp=  27.000          
 ******  
 average_power=   8.090343u  from=   0.            to= 130.000000n
 tda_f_xor1=  46.926749p  targ=  20.084731n   trig=  20.037804n
 tda_r_xor2=  70.171742p  targ=  50.106097n   trig=  50.035925n
 tda_r_xor3=  70.838394p  targ=  90.107251n   trig=  90.036413n
 tda_f_xor4=  39.635845p  targ= 120.075949n   trig= 120.036313n
 tda_xor1=  70.171742p
 tda_xor2=  70.838394p
 tda_xor=  70.838394p
 tda_r_xnor1=  16.091262p  targ=  20.053895n   trig=  20.037804n
 tda_f_xnor2=  27.248845p  targ=  50.063174n   trig=  50.035925n
 tda_f_xnor3=  28.361565p  targ=  90.064775n   trig=  90.036413n
 tda_r_xnor4= 120.798891p  targ= 120.157112n   trig= 120.036313n
 tda_xnor1=  27.248845p
 tda_xnor2= 120.798891p
 tda_xnor= 120.798891p
 tdb_r_xor1=  70.242835p  targ=  10.107401n   trig=  10.037158n
 tdb_r_xor2=  70.178702p  targ=  30.106539n   trig=  30.036360n
 tdb_f_xor3=  46.842802p  targ=  40.084672n   trig=  40.037829n
 tdb_f_xor4=  39.638794p  targ=  60.075939n   trig=  60.036300n
 tdb_xor1=  70.242835p
 tdb_xor2=  46.842802p
 tdb_xor=  70.242835p
 tdb_f_xnor1=  27.803525p  targ=  10.064962n   trig=  10.037158n
 tdb_f_xnor2=  27.110419p  targ=  30.063470n   trig=  30.036360n
 tdb_r_xnor3=  15.911983p  targ=  40.053741n   trig=  40.037829n
 tdb_r_xnor4= 120.828822p  targ=  60.157129n   trig=  60.036300n
 tdb_xnor1=  27.803525p
 tdb_xnor2= 120.828822p
 tdb_xnor= 120.828822p
 tda= 120.798891p
 tdb= 120.828822p
 td= 120.828822p
 pdp= 977.546575a

          ***** job concluded

   *** parameter wmin             =    1.490E-07 ***

 ******  
 title                                                                          
  ******  transient analysis               tnom=  25.000 temp=  27.000          
 ******  
 average_power=   8.082060u  from=   0.            to= 130.000000n
 tda_f_xor1=  46.690469p  targ=  20.084509n   trig=  20.037819n
 tda_r_xor2=  70.411734p  targ=  50.106143n   trig=  50.035731n
 tda_r_xor3=  70.546371p  targ=  90.106967n   trig=  90.036420n
 tda_f_xor4=  39.394951p  targ= 120.075717n   trig= 120.036322n
 tda_xor1=  70.411734p
 tda_xor2=  70.546371p
 tda_xor=  70.546371p
 tda_r_xnor1=  15.992802p  targ=  20.053811n   trig=  20.037819n
 tda_f_xnor2=  27.897698p  targ=  50.063629n   trig=  50.035731n
 tda_f_xnor3=  28.269715p  targ=  90.064690n   trig=  90.036420n
 tda_r_xnor4= 120.157063p  targ= 120.156479n   trig= 120.036322n
 tda_xnor1=  27.897698p
 tda_xnor2= 120.157063p
 tda_xnor= 120.157063p
 tdb_r_xor1=  69.982016p  targ=  10.107149n   trig=  10.037167n
 tdb_r_xor2=  70.283558p  targ=  30.106251n   trig=  30.035968n
 tdb_f_xor3=  46.594395p  targ=  40.084438n   trig=  40.037844n
 tdb_f_xor4=  39.462987p  targ=  60.075772n   trig=  60.036309n
 tdb_xor1=  70.283558p
 tdb_xor2=  46.594395p
 tdb_xor=  70.283558p
 tdb_f_xnor1=  27.711306p  targ=  10.064878n   trig=  10.037167n
 tdb_f_xnor2=  27.337416p  targ=  30.063305n   trig=  30.035968n
 tdb_r_xnor3=  15.825644p  targ=  40.053670n   trig=  40.037844n
 tdb_r_xnor4= 120.165834p  targ=  60.156475n   trig=  60.036309n
 tdb_xnor1=  27.711306p
 tdb_xnor2= 120.165834p
 tdb_xnor= 120.165834p
 tda= 120.157063p
 tdb= 120.165834p
 td= 120.165834p
 pdp= 971.187420a

          ***** job concluded

   *** parameter wmin             =    1.500E-07 ***

 ******  
 title                                                                          
  ******  transient analysis               tnom=  25.000 temp=  27.000          
 ******  
 average_power=   8.075606u  from=   0.            to= 130.000000n
 tda_f_xor1=  46.457731p  targ=  20.084290n   trig=  20.037833n
 tda_r_xor2=  69.657227p  targ=  50.105558n   trig=  50.035900n
 tda_r_xor3=  70.258749p  targ=  90.106686n   trig=  90.036428n
 tda_f_xor4=  39.155263p  targ= 120.075487n   trig= 120.036332n
 tda_xor1=  69.657227p
 tda_xor2=  70.258749p
 tda_xor=  70.258749p
 tda_r_xnor1=  15.894824p  targ=  20.053728n   trig=  20.037833n
 tda_f_xnor2=  27.096081p  targ=  50.062997n   trig=  50.035900n
 tda_f_xnor3=  28.179151p  targ=  90.064607n   trig=  90.036428n
 tda_r_xnor4= 119.525107p  targ= 120.155857n   trig= 120.036332n
 tda_xnor1=  27.096081p
 tda_xnor2= 119.525107p
 tda_xnor= 119.525107p
 tdb_r_xor1=  69.724457p  targ=  10.106899n   trig=  10.037175n
 tdb_r_xor2=  70.004672p  targ=  30.105981n   trig=  30.035976n
 tdb_f_xor3=  46.348811p  targ=  40.084208n   trig=  40.037859n
 tdb_f_xor4=  39.287998p  targ=  60.075607n   trig=  60.036319n
 tdb_xor1=  70.004672p
 tdb_xor2=  46.348811p
 tdb_xor=  70.004672p
 tdb_f_xnor1=  27.620315p  targ=  10.064795n   trig=  10.037175n
 tdb_f_xnor2=  27.247047p  targ=  30.063223n   trig=  30.035976n
 tdb_r_xnor3=  15.740048p  targ=  40.053599n   trig=  40.037859n
 tdb_r_xnor4= 119.516006p  targ=  60.155835n   trig=  60.036319n
 tdb_xnor1=  27.620315p
 tdb_xnor2= 119.516006p
 tdb_xnor= 119.516006p
 tda= 119.525107p
 tdb= 119.516006p
 td= 119.525107p
 pdp= 965.237625a

          ***** job concluded

   *** parameter wmin             =    1.510E-07 ***

 ******  
 title                                                                          
  ******  transient analysis               tnom=  25.000 temp=  27.000          
 ******  
 average_power=   8.075672u  from=   0.            to= 130.000000n
 tda_f_xor1=  46.228445p  targ=  20.084075n   trig=  20.037847n
 tda_r_xor2=  69.907308p  targ=  50.105657n   trig=  50.035750n
 tda_r_xor3=  69.975432p  targ=  90.106410n   trig=  90.036435n
 tda_f_xor4=  38.916759p  targ= 120.075258n   trig= 120.036341n
 tda_xor1=  69.907308p
 tda_xor2=  69.975432p
 tda_xor=  69.975432p
 tda_r_xnor1=  15.797334p  targ=  20.053644n   trig=  20.037847n
 tda_f_xnor2=  27.760904p  targ=  50.063511n   trig=  50.035750n
 tda_f_xnor3=  28.089849p  targ=  90.064525n   trig=  90.036435n
 tda_r_xnor4= 118.902963p  targ= 120.155244n   trig= 120.036341n
 tda_xnor1=  27.760904p
 tda_xnor2= 118.902963p
 tda_xnor= 118.902963p
 tdb_r_xor1=  69.469997p  targ=  10.106653n   trig=  10.037183n
 tdb_r_xor2=  69.729240p  targ=  30.105713n   trig=  30.035984n
 tdb_f_xor3=  46.111163p  targ=  40.083986n   trig=  40.037875n
 tdb_f_xor4=  39.113984p  targ=  60.075442n   trig=  60.036328n
 tdb_xor1=  69.729240p
 tdb_xor2=  46.111163p
 tdb_xor=  69.729240p
 tdb_f_xnor1=  27.530525p  targ=  10.064713n   trig=  10.037183n
 tdb_f_xnor2=  27.157810p  targ=  30.063142n   trig=  30.035984n
 tdb_r_xnor3=  15.655189p  targ=  40.053530n   trig=  40.037875n
 tdb_r_xnor4= 118.878835p  targ=  60.155207n   trig=  60.036328n
 tdb_xnor1=  27.530525p
 tdb_xnor2= 118.878835p
 tdb_xnor= 118.878835p
 tda= 118.902963p
 tdb= 118.878835p
 td= 118.902963p
 pdp= 960.221303a

          ***** job concluded

   *** parameter wmin             =    1.520E-07 ***

 ******  
 title                                                                          
  ******  transient analysis               tnom=  25.000 temp=  27.000          
 ******  
 average_power=   8.072256u  from=   0.            to= 130.000000n
 tda_f_xor1=  46.002549p  targ=  20.083864n   trig=  20.037861n
 tda_r_xor2=  69.631184p  targ=  50.105389n   trig=  50.035758n
 tda_r_xor3=  69.696325p  targ=  90.106139n   trig=  90.036442n
 tda_f_xor4=  38.679420p  targ= 120.075030n   trig= 120.036350n
 tda_xor1=  69.631184p
 tda_xor2=  69.696325p
 tda_xor=  69.696325p
 tda_r_xnor1=  15.700252p  targ=  20.053561n   trig=  20.037861n
 tda_f_xnor2=  27.673716p  targ=  50.063432n   trig=  50.035758n
 tda_f_xnor3=  28.001786p  targ=  90.064444n   trig=  90.036442n
 tda_r_xnor4= 118.290546p  targ= 120.154641n   trig= 120.036350n
 tda_xnor1=  27.673716p
 tda_xnor2= 118.290546p
 tda_xnor= 118.290546p
 tdb_r_xor1=  69.218484p  targ=  10.106409n   trig=  10.037191n
 tdb_r_xor2=  69.457218p  targ=  30.105450n   trig=  30.035992n
 tdb_f_xor3=  45.878363p  targ=  40.083768n   trig=  40.037890n
 tdb_f_xor4=  38.940758p  targ=  60.075278n   trig=  60.036338n
 tdb_xor1=  69.457218p
 tdb_xor2=  45.878363p
 tdb_xor=  69.457218p
 tdb_f_xnor1=  27.441910p  targ=  10.064633n   trig=  10.037191n
 tdb_f_xnor2=  27.069697p  targ=  30.063062n   trig=  30.035992n
 tdb_r_xnor3=  15.571053p  targ=  40.053461n   trig=  40.037890n
 tdb_r_xnor4= 118.253806p  targ=  60.154591n   trig=  60.036338n
 tdb_xnor1=  27.441910p
 tdb_xnor2= 118.253806p
 tdb_xnor= 118.253806p
 tda= 118.290546p
 tdb= 118.253806p
 td= 118.290546p
 pdp= 954.871528a

          ***** job concluded

   *** parameter wmin             =    1.530E-07 ***

 ******  
 title                                                                          
  ******  transient analysis               tnom=  25.000 temp=  27.000          
 ******  
 average_power=   8.068573u  from=   0.            to= 130.000000n
 tda_f_xor1=  45.779941p  targ=  20.083655n   trig=  20.037875n
 tda_r_xor2=  69.359037p  targ=  50.105125n   trig=  50.035766n
 tda_r_xor3=  69.421326p  targ=  90.105871n   trig=  90.036450n
 tda_f_xor4=  38.443225p  targ= 120.074803n   trig= 120.036360n
 tda_xor1=  69.359037p
 tda_xor2=  69.421326p
 tda_xor=  69.421326p
 tda_r_xnor1=  15.603703p  targ=  20.053479n   trig=  20.037875n
 tda_f_xnor2=  27.587748p  targ=  50.063353n   trig=  50.035766n
 tda_f_xnor3=  27.914938p  targ=  90.064365n   trig=  90.036450n
 tda_r_xnor4= 117.687726p  targ= 120.154047n   trig= 120.036360n
 tda_xnor1=  27.587748p
 tda_xnor2= 117.687726p
 tda_xnor= 117.687726p
 tdb_r_xor1=  68.968810p  targ=  10.106168n   trig=  10.037199n
 tdb_r_xor2=  69.188579p  targ=  30.105189n   trig=  30.036000n
 tdb_f_xor3=  45.648854p  targ=  40.083554n   trig=  40.037905n
 tdb_f_xor4=  38.768359p  targ=  60.075115n   trig=  60.036347n
 tdb_xor1=  69.188579p
 tdb_xor2=  45.648854p
 tdb_xor=  69.188579p
 tdb_f_xnor1=  27.354447p  targ=  10.064554n   trig=  10.037199n
 tdb_f_xnor2=  26.982718p  targ=  30.062983n   trig=  30.036000n
 tdb_r_xnor3=  15.487637p  targ=  40.053393n   trig=  40.037905n
 tdb_r_xnor4= 117.640428p  targ=  60.153987n   trig=  60.036347n
 tdb_xnor1=  27.354447p
 tdb_xnor2= 117.640428p
 tdb_xnor= 117.640428p
 tda= 117.687726p
 tdb= 117.640428p
 td= 117.687726p
 pdp= 949.571983a

          ***** job concluded

   *** parameter wmin             =    1.540E-07 ***

 ******  
 title                                                                          
  ******  transient analysis               tnom=  25.000 temp=  27.000          
 ******  
 average_power=   8.064504u  from=   0.            to= 130.000000n
 tda_f_xor1=  45.560550p  targ=  20.083450n   trig=  20.037890n
 tda_r_xor2=  69.090842p  targ=  50.104864n   trig=  50.035774n
 tda_r_xor3=  69.150335p  targ=  90.105607n   trig=  90.036457n
 tda_f_xor4=  38.214744p  targ= 120.074584n   trig= 120.036369n
 tda_xor1=  69.090842p
 tda_xor2=  69.150335p
 tda_xor=  69.150335p
 tda_r_xnor1=  15.507618p  targ=  20.053397n   trig=  20.037890n
 tda_f_xnor2=  27.502978p  targ=  50.063277n   trig=  50.035774n
 tda_f_xnor3=  27.829282p  targ=  90.064286n   trig=  90.036457n
 tda_r_xnor4= 117.094334p  targ= 120.153463n   trig= 120.036369n
 tda_xnor1=  27.502978p
 tda_xnor2= 117.094334p
 tda_xnor= 117.094334p
 tdb_r_xor1=  68.718402p  targ=  10.105926n   trig=  10.037207n
 tdb_r_xor2=  68.923305p  targ=  30.104932n   trig=  30.036009n
 tdb_f_xor3=  45.422528p  targ=  40.083343n   trig=  40.037921n
 tdb_f_xor4=  38.596765p  targ=  60.074953n   trig=  60.036356n
 tdb_xor1=  68.923305p
 tdb_xor2=  45.422528p
 tdb_xor=  68.923305p
 tdb_f_xnor1=  27.268112p  targ=  10.064475n   trig=  10.037207n
 tdb_f_xnor2=  26.896901p  targ=  30.062906n   trig=  30.036009n
 tdb_r_xnor3=  15.404909p  targ=  40.053326n   trig=  40.037921n
 tdb_r_xnor4= 117.038220p  targ=  60.153394n   trig=  60.036356n
 tdb_xnor1=  27.268112p
 tdb_xnor2= 117.038220p
 tdb_xnor= 117.038220p
 tda= 117.094334p
 tdb= 117.038220p
 td= 117.094334p
 pdp= 944.307759a

          ***** job concluded

   *** parameter wmin             =    1.550E-07 ***

 ******  
 title                                                                          
  ******  transient analysis               tnom=  25.000 temp=  27.000          
 ******  
 average_power=   8.060072u  from=   0.            to= 130.000000n
 tda_f_xor1=  45.344300p  targ=  20.083248n   trig=  20.037904n
 tda_r_xor2=  68.826469p  targ=  50.104608n   trig=  50.035781n
 tda_r_xor3=  68.883246p  targ=  90.105348n   trig=  90.036464n
 tda_f_xor4=  38.059834p  targ= 120.074438n   trig= 120.036378n
 tda_xor1=  68.826469p
 tda_xor2=  68.883246p
 tda_xor=  68.883246p
 tda_r_xnor1=  15.411994p  targ=  20.053316n   trig=  20.037904n
 tda_f_xnor2=  27.419380p  targ=  50.063201n   trig=  50.035781n
 tda_f_xnor3=  27.744797p  targ=  90.064209n   trig=  90.036464n
 tda_r_xnor4= 116.510167p  targ= 120.152889n   trig= 120.036378n
 tda_xnor1=  27.419380p
 tda_xnor2= 116.510167p
 tda_xnor= 116.510167p
 tdb_r_xor1=  68.471321p  targ=  10.105687n   trig=  10.037215n
 tdb_r_xor2=  68.661206p  targ=  30.104678n   trig=  30.036017n
 tdb_f_xor3=  45.199342p  targ=  40.083135n   trig=  40.037936n
 tdb_f_xor4=  38.425955p  targ=  60.074792n   trig=  60.036366n
 tdb_xor1=  68.661206p
 tdb_xor2=  45.199342p
 tdb_xor=  68.661206p
 tdb_f_xnor1=  27.182879p  targ=  10.064398n   trig=  10.037215n
 tdb_f_xnor2=  26.812045p  targ=  30.062829n   trig=  30.036017n
 tdb_r_xnor3=  15.322868p  targ=  40.053259n   trig=  40.037936n
 tdb_r_xnor4= 116.446716p  targ=  60.152812n   trig=  60.036366n
 tdb_xnor1=  27.182879p
 tdb_xnor2= 116.446716p
 tdb_xnor= 116.446716p
 tda= 116.510167p
 tdb= 116.446716p
 td= 116.510167p
 pdp= 939.080357a

          ***** job concluded

   *** parameter wmin             =    1.560E-07 ***

 ******  
 title                                                                          
  ******  transient analysis               tnom=  25.000 temp=  27.000          
 ******  
 average_power=   8.055389u  from=   0.            to= 130.000000n
 tda_f_xor1=  45.131101p  targ=  20.083049n   trig=  20.037918n
 tda_r_xor2=  68.565831p  targ=  50.104355n   trig=  50.035789n
 tda_r_xor3=  68.619954p  targ=  90.105092n   trig=  90.036472n
 tda_f_xor4=  37.905978p  targ= 120.074294n   trig= 120.036388n
 tda_xor1=  68.565831p
 tda_xor2=  68.619954p
 tda_xor=  68.619954p
 tda_r_xnor1=  15.316823p  targ=  20.053235n   trig=  20.037918n
 tda_f_xnor2=  27.336935p  targ=  50.063126n   trig=  50.035789n
 tda_f_xnor3=  27.661462p  targ=  90.064133n   trig=  90.036472n
 tda_r_xnor4= 115.934968p  targ= 120.152323n   trig= 120.036388n
 tda_xnor1=  27.336935p
 tda_xnor2= 115.934968p
 tda_xnor= 115.934968p
 tdb_r_xor1=  68.223765p  targ=  10.105447n   trig=  10.037224n
 tdb_r_xor2=  68.402293p  targ=  30.104427n   trig=  30.036025n
 tdb_f_xor3=  44.979228p  targ=  40.082930n   trig=  40.037951n
 tdb_f_xor4=  38.255908p  targ=  60.074631n   trig=  60.036375n
 tdb_xor1=  68.402293p
 tdb_xor2=  44.979228p
 tdb_xor=  68.402293p
 tdb_f_xnor1=  27.098727p  targ=  10.064322n   trig=  10.037224n
 tdb_f_xnor2=  26.728209p  targ=  30.062753n   trig=  30.036025n
 tdb_r_xnor3=  15.241501p  targ=  40.053193n   trig=  40.037951n
 tdb_r_xnor4= 115.865468p  targ=  60.152240n   trig=  60.036375n
 tdb_xnor1=  27.098727p
 tdb_xnor2= 115.865468p
 tdb_xnor= 115.865468p
 tda= 115.934968p
 tdb= 115.865468p
 td= 115.934968p
 pdp= 933.901298a

          ***** job concluded

   *** parameter wmin             =    1.570E-07 ***

 ******  
 title                                                                          
  ******  transient analysis               tnom=  25.000 temp=  27.000          
 ******  
 average_power=   8.051518u  from=   0.            to= 130.000000n
 tda_f_xor1=  44.920877p  targ=  20.082853n   trig=  20.037932n
 tda_r_xor2=  68.308840p  targ=  50.104106n   trig=  50.035797n
 tda_r_xor3=  68.360349p  targ=  90.104839n   trig=  90.036479n
 tda_f_xor4=  37.753153p  targ= 120.074150n   trig= 120.036397n
 tda_xor1=  68.308840p
 tda_xor2=  68.360349p
 tda_xor=  68.360349p
 tda_r_xnor1=  15.222132p  targ=  20.053154n   trig=  20.037932n
 tda_f_xnor2=  27.255618p  targ=  50.063053n   trig=  50.035797n
 tda_f_xnor3=  27.579254p  targ=  90.064058n   trig=  90.036479n
 tda_r_xnor4= 115.368447p  targ= 120.151766n   trig= 120.036397n
 tda_xnor1=  27.255618p
 tda_xnor2= 115.368447p
 tda_xnor= 115.368447p
 tdb_r_xor1=  67.976059p  targ=  10.105208n   trig=  10.037232n
 tdb_r_xor2=  68.146527p  targ=  30.104179n   trig=  30.036033n
 tdb_f_xor3=  44.762128p  targ=  40.082728n   trig=  40.037966n
 tdb_f_xor4=  38.086603p  targ=  60.074471n   trig=  60.036384n
 tdb_xor1=  68.146527p
 tdb_xor2=  44.762128p
 tdb_xor=  68.146527p
 tdb_f_xnor1=  27.015632p  targ=  10.064247n   trig=  10.037232n
 tdb_f_xnor2=  26.645371p  targ=  30.062678n   trig=  30.036033n
 tdb_r_xnor3=  15.160797p  targ=  40.053127n   trig=  40.037966n
 tdb_r_xnor4= 115.294047p  targ=  60.151678n   trig=  60.036384n
 tdb_xnor1=  27.015632p
 tdb_xnor2= 115.294047p
 tdb_xnor= 115.294047p
 tda= 115.368447p
 tdb= 115.294047p
 td= 115.368447p
 pdp= 928.891135a

          ***** job concluded

   *** parameter wmin             =    1.580E-07 ***

 ******  
 title                                                                          
  ******  transient analysis               tnom=  25.000 temp=  27.000          
 ******  
 average_power=   8.048678u  from=   0.            to= 130.000000n
 tda_f_xor1=  44.713567p  targ=  20.082660n   trig=  20.037946n
 tda_r_xor2=  68.055432p  targ=  50.103860n   trig=  50.035805n
 tda_r_xor3=  68.104341p  targ=  90.104591n   trig=  90.036486n
 tda_f_xor4=  37.601340p  targ= 120.074008n   trig= 120.036406n
 tda_xor1=  68.055432p
 tda_xor2=  68.104341p
 tda_xor=  68.104341p
 tda_r_xnor1=  15.127865p  targ=  20.053074n   trig=  20.037946n
 tda_f_xnor2=  27.175396p  targ=  50.062980n   trig=  50.035805n
 tda_f_xnor3=  27.498155p  targ=  90.063984n   trig=  90.036486n
 tda_r_xnor4= 114.810279p  targ= 120.151217n   trig= 120.036406n
 tda_xnor1=  27.175396p
 tda_xnor2= 114.810279p
 tda_xnor= 114.810279p
 tdb_r_xor1=  67.732116p  targ=  10.104972n   trig=  10.037240n
 tdb_r_xor2=  67.893866p  targ=  30.103935n   trig=  30.036041n
 tdb_f_xor3=  44.547984p  targ=  40.082529n   trig=  40.037982n
 tdb_f_xor4=  37.918021p  targ=  60.074311n   trig=  60.036393n
 tdb_xor1=  67.893866p
 tdb_xor2=  44.547984p
 tdb_xor=  67.893866p
 tdb_f_xnor1=  26.933572p  targ=  10.064173n   trig=  10.037240n
 tdb_f_xnor2=  26.563517p  targ=  30.062604n   trig=  30.036041n
 tdb_r_xnor3=  15.080745p  targ=  40.053062n   trig=  40.037982n
 tdb_r_xnor4= 114.732036p  targ=  60.151125n   trig=  60.036393n
 tdb_xnor1=  26.933572p
 tdb_xnor2= 114.732036p
 tdb_xnor= 114.732036p
 tda= 114.810279p
 tdb= 114.732036p
 td= 114.810279p
 pdp= 924.070911a

          ***** job concluded

   *** parameter wmin             =    1.590E-07 ***

 ******  
 title                                                                          
  ******  transient analysis               tnom=  25.000 temp=  27.000          
 ******  
 average_power=   8.045465u  from=   0.            to= 130.000000n
 tda_f_xor1=  44.509074p  targ=  20.082469n   trig=  20.037960n
 tda_r_xor2=  67.805546p  targ=  50.103618n   trig=  50.035813n
 tda_r_xor3=  67.851760p  targ=  90.104345n   trig=  90.036493n
 tda_f_xor4=  37.450519p  targ= 120.073866n   trig= 120.036416n
 tda_xor1=  67.805546p
 tda_xor2=  67.851760p
 tda_xor=  67.851760p
 tda_r_xnor1=  15.034038p  targ=  20.052994n   trig=  20.037960n
 tda_f_xnor2=  27.096231p  targ=  50.062909n   trig=  50.035813n
 tda_f_xnor3=  27.418142p  targ=  90.063912n   trig=  90.036493n
 tda_r_xnor4= 114.260110p  targ= 120.150676n   trig= 120.036416n
 tda_xnor1=  27.096231p
 tda_xnor2= 114.260110p
 tda_xnor= 114.260110p
 tdb_r_xor1=  67.491736p  targ=  10.104740n   trig=  10.037248n
 tdb_r_xor2=  67.644423p  targ=  30.103693n   trig=  30.036049n
 tdb_f_xor3=  44.336737p  targ=  40.082333n   trig=  40.037997n
 tdb_f_xor4=  37.750143p  targ=  60.074153n   trig=  60.036403n
 tdb_xor1=  67.644423p
 tdb_xor2=  44.336737p
 tdb_xor=  67.644423p
 tdb_f_xnor1=  26.852525p  targ=  10.064100n   trig=  10.037248n
 tdb_f_xnor2=  26.482622p  targ=  30.062531n   trig=  30.036049n
 tdb_r_xnor3=  15.001335p  targ=  40.052998n   trig=  40.037997n
 tdb_r_xnor4= 114.178887p  targ=  60.150582n   trig=  60.036403n
 tdb_xnor1=  26.852525p
 tdb_xnor2= 114.178887p
 tdb_xnor= 114.178887p
 tda= 114.260110p
 tdb= 114.178887p
 td= 114.260110p
 pdp= 919.275737a

          ***** job concluded

   *** parameter wmin             =    1.600E-07 ***

 ******  
 title                                                                          
  ******  transient analysis               tnom=  25.000 temp=  27.000          
 ******  
 average_power=   8.044292u  from=   0.            to= 130.000000n
 tda_f_xor1=  44.307330p  targ=  20.082282n   trig=  20.037974n
 tda_r_xor2=  67.559055p  targ=  50.103380n   trig=  50.035821n
 tda_r_xor3=  67.632474p  targ=  90.104133n   trig=  90.036501n
 tda_f_xor4=  37.300668p  targ= 120.073726n   trig= 120.036425n
 tda_xor1=  67.559055p
 tda_xor2=  67.632474p
 tda_xor=  67.632474p
 tda_r_xnor1=  14.940648p  targ=  20.052915n   trig=  20.037974n
 tda_f_xnor2=  27.018141p  targ=  50.062839n   trig=  50.035821n
 tda_f_xnor3=  27.339198p  targ=  90.063840n   trig=  90.036501n
 tda_r_xnor4= 113.717564p  targ= 120.150143n   trig= 120.036425n
 tda_xnor1=  27.018141p
 tda_xnor2= 113.717564p
 tda_xnor= 113.717564p
 tdb_r_xor1=  67.254728p  targ=  10.104511n   trig=  10.037256n
 tdb_r_xor2=  67.398253p  targ=  30.103455n   trig=  30.036057n
 tdb_f_xor3=  44.128329p  targ=  40.082140n   trig=  40.038012n
 tdb_f_xor4=  37.582947p  targ=  60.073995n   trig=  60.036412n
 tdb_xor1=  67.398253p
 tdb_xor2=  44.128329p
 tdb_xor=  67.398253p
 tdb_f_xnor1=  26.772470p  targ=  10.064029n   trig=  10.037256n
 tdb_f_xnor2=  26.402662p  targ=  30.062460n   trig=  30.036057n
 tdb_r_xnor3=  14.922555p  targ=  40.052934n   trig=  40.038012n
 tdb_r_xnor4= 113.634500p  targ=  60.150046n   trig=  60.036412n
 tdb_xnor1=  26.772470p
 tdb_xnor2= 113.634500p
 tdb_xnor= 113.634500p
 tda= 113.717564p
 tdb= 113.634500p
 td= 113.717564p
 pdp= 914.777347a

          ***** job concluded

   *** parameter wmin             =    1.610E-07 ***

 ******  
 title                                                                          
  ******  transient analysis               tnom=  25.000 temp=  27.000          
 ******  
 average_power=   8.043129u  from=   0.            to= 130.000000n
 tda_f_xor1=  44.108254p  targ=  20.082096n   trig=  20.037988n
 tda_r_xor2=  67.326151p  targ=  50.103155n   trig=  50.035828n
 tda_r_xor3=  67.419286p  targ=  90.103927n   trig=  90.036508n
 tda_f_xor4=  37.151769p  targ= 120.073586n   trig= 120.036434n
 tda_xor1=  67.326151p
 tda_xor2=  67.419286p
 tda_xor=  67.419286p
 tda_r_xnor1=  14.847674p  targ=  20.052836n   trig=  20.037988n
 tda_f_xnor2=  26.941104p  targ=  50.062770n   trig=  50.035828n
 tda_f_xnor3=  27.261304p  targ=  90.063769n   trig=  90.036508n
 tda_r_xnor4= 113.182254p  targ= 120.149617n   trig= 120.036434n
 tda_xnor1=  26.941104p
 tda_xnor2= 113.182254p
 tda_xnor= 113.182254p
 tdb_r_xor1=  67.020917p  targ=  10.104285n   trig=  10.037264n
 tdb_r_xor2=  67.155059p  targ=  30.103220n   trig=  30.036065n
 tdb_f_xor3=  43.922780p  targ=  40.081950n   trig=  40.038027n
 tdb_f_xor4=  37.416417p  targ=  60.073837n   trig=  60.036421n
 tdb_xor1=  67.155059p
 tdb_xor2=  43.922780p
 tdb_xor=  67.155059p
 tdb_f_xnor1=  26.693386p  targ=  10.063958n   trig=  10.037264n
 tdb_f_xnor2=  26.323614p  targ=  30.062388n   trig=  30.036065n
 tdb_r_xnor3=  14.844393p  targ=  40.052871n   trig=  40.038027n
 tdb_r_xnor4= 113.098370p  targ=  60.149519n   trig=  60.036421n
 tdb_xnor1=  26.693386p
 tdb_xnor2= 113.098370p
 tdb_xnor= 113.098370p
 tda= 113.182254p
 tdb= 113.098370p
 td= 113.182254p
 pdp= 910.339484a

          ***** job concluded

   *** parameter wmin             =    1.620E-07 ***

 ******  
 title                                                                          
  ******  transient analysis               tnom=  25.000 temp=  27.000          
 ******  
 average_power=   8.032413u  from=   0.            to= 130.000000n
 tda_f_xor1=  43.911760p  targ=  20.081914n   trig=  20.038002n
 tda_r_xor2=  67.105534p  targ=  50.102942n   trig=  50.035836n
 tda_r_xor3=  67.208666p  targ=  90.103724n   trig=  90.036515n
 tda_f_xor4=  37.003804p  targ= 120.073447n   trig= 120.036444n
 tda_xor1=  67.105534p
 tda_xor2=  67.208666p
 tda_xor=  67.208666p
 tda_r_xnor1=  14.792551p  targ=  20.052795n   trig=  20.038002n
 tda_f_xnor2=  26.865104p  targ=  50.062701n   trig=  50.035836n
 tda_f_xnor3=  27.184439p  targ=  90.063700n   trig=  90.036515n
 tda_r_xnor4= 112.653788p  targ= 120.149097n   trig= 120.036444n
 tda_xnor1=  26.865104p
 tda_xnor2= 112.653788p
 tda_xnor= 112.653788p
 tdb_r_xor1=  66.790136p  targ=  10.104062n   trig=  10.037272n
 tdb_r_xor2=  66.914800p  targ=  30.102988n   trig=  30.036073n
 tdb_f_xor3=  43.719981p  targ=  40.081762n   trig=  40.038042n
 tdb_f_xor4=  37.250534p  targ=  60.073681n   trig=  60.036430n
 tdb_xor1=  66.914800p
 tdb_xor2=  43.719981p
 tdb_xor=  66.914800p
 tdb_f_xnor1=  26.615251p  targ=  10.063888n   trig=  10.037272n
 tdb_f_xnor2=  26.245457p  targ=  30.062318n   trig=  30.036073n
 tdb_r_xnor3=  14.766841p  targ=  40.052809n   trig=  40.038042n
 tdb_r_xnor4= 112.570139p  targ=  60.149000n   trig=  60.036430n
 tdb_xnor1=  26.615251p
 tdb_xnor2= 112.570139p
 tdb_xnor= 112.570139p
 tda= 112.653788p
 tdb= 112.570139p
 td= 112.653788p
 pdp= 904.881777a

          ***** job concluded

   *** parameter wmin             =    1.630E-07 ***

 ******  
 title                                                                          
  ******  transient analysis               tnom=  25.000 temp=  27.000          
 ******  
 average_power=   8.031388u  from=   0.            to= 130.000000n
 tda_f_xor1=  43.717781p  targ=  20.081734n   trig=  20.038016n
 tda_r_xor2=  66.887861p  targ=  50.102732n   trig=  50.035844n
 tda_r_xor3=  66.984434p  targ=  90.103507n   trig=  90.036523n
 tda_f_xor4=  36.856760p  targ= 120.073310n   trig= 120.036453n
 tda_xor1=  66.887861p
 tda_xor2=  66.984434p
 tda_xor=  66.984434p
 tda_r_xnor1=  14.737918p  targ=  20.052754n   trig=  20.038016n
 tda_f_xnor2=  26.790131p  targ=  50.062634n   trig=  50.035844n
 tda_f_xnor3=  27.108588p  targ=  90.063631n   trig=  90.036523n
 tda_r_xnor4= 112.131768p  targ= 120.148585n   trig= 120.036453n
 tda_xnor1=  26.790131p
 tda_xnor2= 112.131768p
 tda_xnor= 112.131768p
 tdb_r_xor1=  66.562231p  targ=  10.103843n   trig=  10.037280n
 tdb_r_xor2=  66.677434p  targ=  30.102758n   trig=  30.036081n
 tdb_f_xor3=  43.519878p  targ=  40.081577n   trig=  40.038057n
 tdb_f_xor4=  37.085280p  targ=  60.073525n   trig=  60.036439n
[...]
 tdb_f_xnor2=  22.620208p  targ=  30.059284n   trig=  30.036664n
 tdb_r_xnor3=  10.873165p  targ=  40.050112n   trig=  40.039239n
 tdb_r_xnor4=  83.587820p  targ=  60.120717n   trig=  60.037129n
 tdb_xnor1=  22.620208p
 tdb_xnor2=  83.587820p
 tdb_xnor=  83.587820p
 tda=  83.462854p
 tdb=  83.587820p
 td=  83.587820p
 pdp= 668.574872a

          ***** job concluded

   *** parameter wmin             =    2.450E-07 ***

 ******  
 title                                                                          
  ******  transient analysis               tnom=  25.000 temp=  27.000          
 ******  
 average_power=   7.999774u  from=   0.            to= 130.000000n
 tda_f_xor1=  33.089232p  targ=  20.072188n   trig=  20.039099n
 tda_r_xor2=  55.114207p  targ=  50.091559n   trig=  50.036445n
 tda_r_xor3=  55.223286p  targ=  90.092206n   trig=  90.036982n
 tda_f_xor4=  27.714436p  targ= 120.064698n   trig= 120.036984n
 tda_xor1=  55.114207p
 tda_xor2=  55.223286p
 tda_xor=  55.223286p
 tda_r_xnor1=  11.056495p  targ=  20.050156n   trig=  20.039099n
 tda_f_xnor2=  22.925249p  targ=  50.059370n   trig=  50.036445n
 tda_f_xnor3=  23.300410p  targ=  90.060283n   trig=  90.036982n
 tda_r_xnor4=  83.225421p  targ= 120.120209n   trig= 120.036984n
 tda_xnor1=  22.925249p
 tda_xnor2=  83.225421p
 tda_xnor=  83.225421p
 tdb_r_xor1=  54.649733p  targ=  10.092638n   trig=  10.037989n
 tdb_r_xor2=  54.898884p  targ=  30.091569n   trig=  30.036670n
 tdb_f_xor3=  32.669713p  targ=  40.071923n   trig=  40.039253n
 tdb_f_xor4=  27.443343p  targ=  60.064581n   trig=  60.037137n
 tdb_xor1=  54.898884p
 tdb_xor2=  32.669713p
 tdb_xor=  54.898884p
 tdb_f_xnor1=  22.565465p  targ=  10.060554n   trig=  10.037989n
 tdb_f_xnor2=  22.595192p  targ=  30.059266n   trig=  30.036670n
 tdb_r_xnor3=  10.844075p  targ=  40.050097n   trig=  40.039253n
 tdb_r_xnor4=  83.360072p  targ=  60.120497n   trig=  60.037137n
 tdb_xnor1=  22.595192p
 tdb_xnor2=  83.360072p
 tdb_xnor=  83.360072p
 tda=  83.225421p
 tdb=  83.360072p
 td=  83.360072p
 pdp= 666.861710a

          ***** job concluded

   *** parameter wmin             =    2.460E-07 ***

 ******  
 title                                                                          
  ******  transient analysis               tnom=  25.000 temp=  27.000          
 ******  
 average_power=   8.008274u  from=   0.            to= 130.000000n
 tda_f_xor1=  33.005216p  targ=  20.072117n   trig=  20.039112n
 tda_r_xor2=  55.022198p  targ=  50.091474n   trig=  50.036452n
 tda_r_xor3=  55.131100p  targ=  90.092121n   trig=  90.036990n
 tda_f_xor4=  27.644014p  targ= 120.064637n   trig= 120.036993n
 tda_xor1=  55.022198p
 tda_xor2=  55.131100p
 tda_xor=  55.131100p
 tda_r_xnor1=  11.041254p  targ=  20.050153n   trig=  20.039112n
 tda_f_xnor2=  22.899238p  targ=  50.059351n   trig=  50.036452n
 tda_f_xnor3=  23.270755p  targ=  90.060260n   trig=  90.036990n
 tda_r_xnor4=  82.990045p  targ= 120.119983n   trig= 120.036993n
 tda_xnor1=  22.899238p
 tda_xnor2=  82.990045p
 tda_xnor=  82.990045p
 tdb_r_xor1=  54.564100p  targ=  10.092561n   trig=  10.037997n
 tdb_r_xor2=  54.810289p  targ=  30.091487n   trig=  30.036677n
 tdb_f_xor3=  32.582989p  targ=  40.071850n   trig=  40.039267n
 tdb_f_xor4=  27.355108p  targ=  60.064501n   trig=  60.037146n
 tdb_xor1=  54.810289p
 tdb_xor2=  32.582989p
 tdb_xor=  54.810289p
 tdb_f_xnor1=  22.537482p  targ=  10.060535n   trig=  10.037997n
 tdb_f_xnor2=  22.570447p  targ=  30.059247n   trig=  30.036677n
 tdb_r_xnor3=  10.815158p  targ=  40.050082n   trig=  40.039267n
 tdb_r_xnor4=  83.134035p  targ=  60.120280n   trig=  60.037146n
 tdb_xnor1=  22.570447p
 tdb_xnor2=  83.134035p
 tdb_xnor=  83.134035p
 tda=  82.990045p
 tdb=  83.134035p
 td=  83.134035p
 pdp= 665.760100a

          ***** job concluded

   *** parameter wmin             =    2.470E-07 ***

 ******  
 title                                                                          
  ******  transient analysis               tnom=  25.000 temp=  27.000          
 ******  
 average_power=   8.007344u  from=   0.            to= 130.000000n
 tda_f_xor1=  32.921789p  targ=  20.072046n   trig=  20.039124n
 tda_r_xor2=  54.931058p  targ=  50.091390n   trig=  50.036459n
 tda_r_xor3=  55.039761p  targ=  90.092037n   trig=  90.036997n
 tda_f_xor4=  27.574021p  targ= 120.064576n   trig= 120.037002n
 tda_xor1=  54.931058p
 tda_xor2=  55.039761p
 tda_xor=  55.039761p
 tda_r_xnor1=  11.026200p  targ=  20.050151n   trig=  20.039124n
 tda_f_xnor2=  22.873517p  targ=  50.059332n   trig=  50.036459n
 tda_f_xnor3=  23.241399p  targ=  90.060238n   trig=  90.036997n
 tda_r_xnor4=  82.756707p  targ= 120.119758n   trig= 120.037002n
 tda_xnor1=  22.873517p
 tda_xnor2=  82.756707p
 tda_xnor=  82.756707p
 tdb_r_xor1=  54.479291p  targ=  10.092485n   trig=  10.038005n
 tdb_r_xor2=  54.722807p  targ=  30.091406n   trig=  30.036683n
 tdb_f_xor3=  32.497014p  targ=  40.071778n   trig=  40.039281n
 tdb_f_xor4=  27.266960p  targ=  60.064421n   trig=  60.037154n
 tdb_xor1=  54.722807p
 tdb_xor2=  32.497014p
 tdb_xor=  54.722807p
 tdb_f_xnor1=  22.509793p  targ=  10.060515n   trig=  10.038005n
 tdb_f_xnor2=  22.545966p  targ=  30.059229n   trig=  30.036683n
 tdb_r_xnor3=  10.786411p  targ=  40.050068n   trig=  40.039281n
 tdb_r_xnor4=  82.909674p  targ=  60.120064n   trig=  60.037154n
 tdb_xnor1=  22.545966p
 tdb_xnor2=  82.909674p
 tdb_xnor=  82.909674p
 tda=  82.756707p
 tdb=  82.909674p
 td=  82.909674p
 pdp= 663.886260a

          ***** job concluded

   *** parameter wmin             =    2.480E-07 ***

 ******  
 title                                                                          
  ******  transient analysis               tnom=  25.000 temp=  27.000          
 ******  
 average_power=   8.008005u  from=   0.            to= 130.000000n
 tda_f_xor1=  32.836841p  targ=  20.071974n   trig=  20.039137n
 tda_r_xor2=  54.840780p  targ=  50.091306n   trig=  50.036466n
 tda_r_xor3=  54.949256p  targ=  90.091954n   trig=  90.037004n
 tda_f_xor4=  27.504486p  targ= 120.064515n   trig= 120.037010n
 tda_xor1=  54.840780p
 tda_xor2=  54.949256p
 tda_xor=  54.949256p
 tda_r_xnor1=  11.000975p  targ=  20.050138n   trig=  20.039137n
 tda_f_xnor2=  22.848081p  targ=  50.059314n   trig=  50.036466n
 tda_f_xnor3=  23.212338p  targ=  90.060217n   trig=  90.037004n
 tda_r_xnor4=  82.525373p  targ= 120.119536n   trig= 120.037010n
 tda_xnor1=  22.848081p
 tda_xnor2=  82.525373p
 tda_xnor=  82.525373p
 tdb_r_xor1=  54.395296p  targ=  10.092409n   trig=  10.038014n
 tdb_r_xor2=  54.636404p  targ=  30.091326n   trig=  30.036689n
 tdb_f_xor3=  32.411776p  targ=  40.071707n   trig=  40.039295n
 tdb_f_xor4=  27.178894p  targ=  60.064342n   trig=  60.037163n
 tdb_xor1=  54.636404p
 tdb_xor2=  32.411776p
 tdb_xor=  54.636404p
 tdb_f_xnor1=  22.482395p  targ=  10.060496n   trig=  10.038014n
 tdb_f_xnor2=  22.521750p  targ=  30.059211n   trig=  30.036689n
 tdb_r_xnor3=  10.757834p  targ=  40.050053n   trig=  40.039295n
 tdb_r_xnor4=  82.686960p  targ=  60.119850n   trig=  60.037163n
 tdb_xnor1=  22.521750p
 tdb_xnor2=  82.686960p
 tdb_xnor=  82.686960p
 tda=  82.525373p
 tdb=  82.686960p
 td=  82.686960p
 pdp= 662.157578a

          ***** job concluded

   *** parameter wmin             =    2.490E-07 ***

 ******  
 title                                                                          
  ******  transient analysis               tnom=  25.000 temp=  27.000          
 ******  
 average_power=   8.008669u  from=   0.            to= 130.000000n
 tda_f_xor1=  32.751085p  targ=  20.071900n   trig=  20.039149n
 tda_r_xor2=  54.751386p  targ=  50.091224n   trig=  50.036473n
 tda_r_xor3=  54.859576p  targ=  90.091871n   trig=  90.037012n
 tda_f_xor4=  27.435389p  targ= 120.064455n   trig= 120.037019n
 tda_xor1=  54.751386p
 tda_xor2=  54.859576p
 tda_xor=  54.859576p
 tda_r_xnor1=  10.968710p  targ=  20.050118n   trig=  20.039149n
 tda_f_xnor2=  22.822928p  targ=  50.059296n   trig=  50.036473n
 tda_f_xnor3=  23.183568p  targ=  90.060195n   trig=  90.037012n
 tda_r_xnor4=  82.296942p  targ= 120.119316n   trig= 120.037019n
 tda_xnor1=  22.822928p
 tda_xnor2=  82.296942p
 tda_xnor=  82.296942p
 tdb_r_xor1=  54.312102p  targ=  10.092334n   trig=  10.038022n
 tdb_r_xor2=  54.551044p  targ=  30.091247n   trig=  30.036696n
 tdb_f_xor3=  32.327265p  targ=  40.071637n   trig=  40.039309n
 tdb_f_xor4=  27.090907p  targ=  60.064262n   trig=  60.037171n
 tdb_xor1=  54.551044p
 tdb_xor2=  32.327265p
 tdb_xor=  54.551044p
 tdb_f_xnor1=  22.455284p  targ=  10.060477n   trig=  10.038022n
 tdb_f_xnor2=  22.497792p  targ=  30.059194n   trig=  30.036696n
 tdb_r_xnor3=  10.729424p  targ=  40.050039n   trig=  40.039309n
 tdb_r_xnor4=  82.465862p  targ=  60.119637n   trig=  60.037171n
 tdb_xnor1=  22.497792p
 tdb_xnor2=  82.465862p
 tdb_xnor=  82.465862p
 tda=  82.296942p
 tdb=  82.465862p
 td=  82.465862p
 pdp= 660.441757a

          ***** job concluded

   *** parameter wmin             =    2.500E-07 ***

 ******  
 title                                                                          
  ******  transient analysis               tnom=  25.000 temp=  27.000          
 ******  
 average_power=   8.009308u  from=   0.            to= 130.000000n
 tda_f_xor1=  32.666021p  targ=  20.071828n   trig=  20.039162n
 tda_r_xor2=  54.662801p  targ=  50.091142n   trig=  50.036479n
 tda_r_xor3=  54.770710p  targ=  90.091790n   trig=  90.037019n
 tda_f_xor4=  27.366717p  targ= 120.064395n   trig= 120.037028n
 tda_xor1=  54.662801p
 tda_xor2=  54.770710p
 tda_xor=  54.770710p
 tda_r_xnor1=  10.936732p  targ=  20.050099n   trig=  20.039162n
 tda_f_xnor2=  22.798056p  targ=  50.059278n   trig=  50.036479n
 tda_f_xnor3=  23.155087p  targ=  90.060174n   trig=  90.037019n
 tda_r_xnor4=  82.071045p  targ= 120.119099n   trig= 120.037028n
 tda_xnor1=  22.798056p
 tda_xnor2=  82.071045p
 tda_xnor=  82.071045p
 tdb_r_xor1=  54.229698p  targ=  10.092260n   trig=  10.038030n
 tdb_r_xor2=  54.466692p  targ=  30.091169n   trig=  30.036702n
 tdb_f_xor3=  32.243473p  targ=  40.071567n   trig=  40.039323n
 tdb_f_xor4=  27.002997p  targ=  60.064182n   trig=  60.037179n
 tdb_xor1=  54.466692p
 tdb_xor2=  32.243473p
 tdb_xor=  54.466692p
 tdb_f_xnor1=  22.428456p  targ=  10.060459n   trig=  10.038030n
 tdb_f_xnor2=  22.474091p  targ=  30.059176n   trig=  30.036702n
 tdb_r_xnor3=  10.701179p  targ=  40.050025n   trig=  40.039323n
 tdb_r_xnor4=  82.246356p  targ=  60.119426n   trig=  60.037179n
 tdb_xnor1=  22.474091p
 tdb_xnor2=  82.246356p
 tdb_xnor=  82.246356p
 tda=  82.071045p
 tdb=  82.246356p
 td=  82.246356p
 pdp= 658.736399a

   meas_variable = average_power   
   mean  =   8.0279u      varian =   1.7633f    
   sigma =  41.9918n      avgdev =  33.8139n    
   max   =   8.1435u      min    =   7.9910u    
    1-sigma =  41.9918n     median =   8.0081u    

   meas_variable = tda_f_xor1      
   mean  =  40.1691p      varian = 2.985e-23    
   sigma =   5.4636p      avgdev =   4.6563p    
   max   =  51.9091p      min    =  32.6660p    
    1-sigma =   5.4636p     median =  39.3229p    

   meas_variable = tda_r_xor2      
   mean  =  62.9928p      varian = 3.863e-23    
   sigma =   6.2155p      avgdev =   5.2827p    
   max   =  76.4268p      min    =  54.6628p    
    1-sigma =   6.2155p     median =  61.8451p    

   meas_variable = tda_r_xor3      
   mean  =  63.2010p      varian = 3.867e-23    
   sigma =   6.2182p      avgdev =   5.2595p    
   max   =  76.9394p      min    =  54.7707p    
    1-sigma =   6.2182p     median =  62.2141p    

   meas_variable = tda_f_xor4      
   mean  =  33.9425p      varian = 2.234e-23    
   sigma =   4.7260p      avgdev =   3.9722p    
   max   =  44.2090p      min    =  27.3667p    
    1-sigma =   4.7260p     median =  33.5254p    

   meas_variable = tda_xor1        
   mean  =  62.9928p      varian = 3.863e-23    
   sigma =   6.2155p      avgdev =   5.2827p    
   max   =  76.4268p      min    =  54.6628p    
    1-sigma =   6.2155p     median =  61.8451p    

   meas_variable = tda_xor2        
   mean  =  63.2010p      varian = 3.867e-23    
   sigma =   6.2182p      avgdev =   5.2595p    
   max   =  76.9394p      min    =  54.7707p    
    1-sigma =   6.2182p     median =  62.2141p    

   meas_variable = tda_xor         
   mean  =  63.2010p      varian = 3.867e-23    
   sigma =   6.2182p      avgdev =   5.2595p    
   max   =  76.9394p      min    =  54.7707p    
    1-sigma =   6.2182p     median =  62.2141p    

   meas_variable = tda_r_xnor1     
   mean  =  13.6632p      varian = 3.852e-24    
   sigma =   1.9626p      avgdev =   1.6366p    
   max   =  17.9576p      min    =  10.9367p    
    1-sigma =   1.9626p     median =  13.4255p    

   meas_variable = tda_f_xnor2     
   mean  =  25.4144p      varian = 4.141e-24    
   sigma =   2.0349p      avgdev =   1.7496p    
   max   =  29.8032p      min    =  22.7621p    
    1-sigma =   2.0349p     median =  25.0890p    

   meas_variable = tda_f_xnor3     
   mean  =  25.9058p      varian = 4.126e-24    
   sigma =   2.0311p      avgdev =   1.7194p    
   max   =  30.4450p      min    =  23.1551p    
    1-sigma =   2.0311p     median =  25.5831p    

   meas_variable = tda_r_xnor4     
   mean  = 102.4724p      varian = 2.180e-22    
   sigma =  14.7635p      avgdev =  12.5324p    
   max   = 134.1853p      min    =  82.0710p    
    1-sigma =  14.7635p     median = 100.1389p    

   meas_variable = tda_xnor1       
   mean  =  25.4144p      varian = 4.141e-24    
   sigma =   2.0349p      avgdev =   1.7496p    
   max   =  29.8032p      min    =  22.7621p    
    1-sigma =   2.0349p     median =  25.0890p    

   meas_variable = tda_xnor2       
   mean  = 102.4724p      varian = 2.180e-22    
   sigma =  14.7635p      avgdev =  12.5324p    
   max   = 134.1853p      min    =  82.0710p    
    1-sigma =  14.7635p     median = 100.1389p    

   meas_variable = tda_xnor        
   mean  = 102.4724p      varian = 2.180e-22    
   sigma =  14.7635p      avgdev =  12.5324p    
   max   = 134.1853p      min    =  82.0710p    
    1-sigma =  14.7635p     median = 100.1389p    

   meas_variable = tdb_r_xor1      
   mean  =  62.4775p      varian = 3.942e-23    
   sigma =   6.2786p      avgdev =   5.3629p    
   max   =  76.1806p      min    =  54.2297p    
    1-sigma =   6.2786p     median =  61.3844p    

   meas_variable = tdb_r_xor2      
   mean  =  62.7008p      varian = 3.871e-23    
   sigma =   6.2217p      avgdev =   5.2901p    
   max   =  76.3112p      min    =  54.4667p    
    1-sigma =   6.2217p     median =  61.3891p    

   meas_variable = tdb_f_xor3      
   mean  =  39.9397p      varian = 3.112e-23    
   sigma =   5.5781p      avgdev =   4.7392p    
   max   =  51.8671p      min    =  32.2435p    
    1-sigma =   5.5781p     median =  39.1018p    

   meas_variable = tdb_f_xor4      
   mean  =  33.7272p      varian = 2.245e-23    
   sigma =   4.7381p      avgdev =   4.0780p    
   max   =  43.8133p      min    =  27.0030p    
    1-sigma =   4.7381p     median =  32.9606p    

   meas_variable = tdb_xor1        
   mean  =  62.7172p      varian = 3.874e-23    
   sigma =   6.2242p      avgdev =   5.2965p    
   max   =  76.3112p      min    =  54.4667p    
    1-sigma =   6.2242p     median =  61.3891p    

   meas_variable = tdb_xor2        
   mean  =  39.9397p      varian = 3.112e-23    
   sigma =   5.5781p      avgdev =   4.7392p    
   max   =  51.8671p      min    =  32.2435p    
    1-sigma =   5.5781p     median =  39.1018p    

   meas_variable = tdb_xor         
   mean  =  62.7172p      varian = 3.874e-23    
   sigma =   6.2242p      avgdev =   5.2965p    
   max   =  76.3112p      min    =  54.4667p    
    1-sigma =   6.2242p     median =  61.3891p    

   meas_variable = tdb_f_xnor1     
   mean  =  25.1874p      varian = 4.370e-24    
   sigma =   2.0904p      avgdev =   1.7844p    
   max   =  29.7062p      min    =  22.4285p    
    1-sigma =   2.0904p     median =  24.8040p    

   meas_variable = tdb_f_xnor2     
   mean  =  24.9588p      varian = 3.764e-24    
   sigma =   1.9401p      avgdev =   1.6395p    
   max   =  29.3200p      min    =  22.4741p    
    1-sigma =   1.9401p     median =  24.5657p    

   meas_variable = tdb_r_xnor3     
   mean  =  13.3470p      varian = 4.026e-24    
   sigma =   2.0066p      avgdev =   1.7259p    
   max   =  17.6117p      min    =  10.7012p    
    1-sigma =   2.0066p     median =  12.9361p    

   meas_variable = tdb_r_xnor4     
   mean  = 102.5576p      varian = 2.193e-22    
   sigma =  14.8092p      avgdev =  12.5837p    
   max   = 134.3088p      min    =  82.2464p    
    1-sigma =  14.8092p     median = 100.3393p    

   meas_variable = tdb_xnor1       
   mean  =  25.1902p      varian = 4.355e-24    
   sigma =   2.0868p      avgdev =   1.7819p    
   max   =  29.7062p      min    =  22.4741p    
    1-sigma =   2.0868p     median =  24.8040p    

   meas_variable = tdb_xnor2       
   mean  = 102.5576p      varian = 2.193e-22    
   sigma =  14.8092p      avgdev =  12.5837p    
   max   = 134.3088p      min    =  82.2464p    
    1-sigma =  14.8092p     median = 100.3393p    

   meas_variable = tdb_xnor        
   mean  = 102.5576p      varian = 2.193e-22    
   sigma =  14.8092p      avgdev =  12.5837p    
   max   = 134.3088p      min    =  82.2464p    
    1-sigma =  14.8092p     median = 100.3393p    

   meas_variable = tda             
   mean  = 102.4724p      varian = 2.180e-22    
   sigma =  14.7635p      avgdev =  12.5324p    
   max   = 134.1853p      min    =  82.0710p    
    1-sigma =  14.7635p     median = 100.1389p    

   meas_variable = tdb             
   mean  = 102.5576p      varian = 2.193e-22    
   sigma =  14.8092p      avgdev =  12.5837p    
   max   = 134.3088p      min    =  82.2464p    
    1-sigma =  14.8092p     median = 100.3393p    

   meas_variable = td              
   mean  = 102.5875p      varian = 2.190e-22    
   sigma =  14.7996p      avgdev =  12.5738p    
   max   = 134.3088p      min    =  82.2464p    
    1-sigma =  14.7996p     median = 100.3393p    

   meas_variable = pdp             
   mean  = 824.1332a      varian =   0.         
   sigma = 123.2838a      avgdev = 104.4675a    
   max   =   1.0918f      min    = 658.7364a    
    1-sigma = 123.2838a     median = 803.2534a    
 

          ***** job concluded
1****** HSPICE -- A-2008.03 32-BIT (Feb 26 2008) winnt ******                   
 ******  
 title                                                                          
  ******  job statistics summary           tnom=  25.000 temp=  27.000          
 ******  

           total memory used        459 kbytes

  # nodes =      17 # elements=      30
  # diodes=       0 # bjts    =       0 # jfets   =       0 # mosfets =      26
  # va device =       0

    analysis           time    # points   tot. iter  conv.iter

    op point           0.39           1        1210
    transient         13.22     1573121      146647       54515 rev=      2827
    readin             0.02
    errchk             0.00
    setup              0.06
    output             0.02
           total cpu time         14.96 seconds
           total elapsed time        15 seconds
               job started at  22:34:47 12/03/2015
               job ended   at  22:35:02 12/03/2015


 Init: hspice initialization file: C:\synopsys\Hspice_A-2008.03\hspice.ini
