***** HSPICE -- A-2008.03 32-BIT (Feb 26 2008) winnt ******
 Input File: c:\users\mahbod\desktop\part2\sample.sp
 lic:
 lic: FLEXlm: v8.5b
 lic: USER:   mahbod               HOSTNAME: mahbod-PC
 lic: HOSTID: "b2004ec1078e 00ffe1529411 00ffd3964207 90004ec1078e f0bf97607ec5
 lic: Using FLEXlm license file:
 lic: C:\Flexlm\Hspice_2007-09.lic
 lic: Checkout 1 hspice
 lic: License/Maintenance for hspice will expire on 31-dec-2020/2007.9
 lic: NODE LOCKED license on hostid "b2004ec1078e 00ffe1529411 00ffd3964207 9000
 lic:
 Init: hspice initialization file: C:\synopsys\Hspice_A-2008.03\hspice.ini
 init: begin read circuit files,  cpu clock=  4.80E-02
       option post
       option nomod
       option measdg   =     6.00
 init: end read circuit files,  cpu clock=  5.80E-02 memory=    282 kb
 init: begin check errors,  cpu clock=  5.80E-02
 init: end check errors,  cpu clock=  6.20E-02 memory=    423 kb
 init: begin setup matrix, pivot=    10 cpu clock=  6.20E-02
       establish matrix -- done,  cpu clock=  7.70E-02 memory=    427 kb
       re-order matrix -- done,  cpu clock=  1.11E-01 memory=    428 kb
 init: end setup matrix,  cpu clock=  1.19E-01 memory=    459 kb
 sweep: parameter       parameter1       begin, #sweeps = 121
 parameter: wmin            =    1.30E-07
 dcop: begin dcop,  cpu clock=  1.32E-01
 dcop: end dcop,  cpu clock=  1.37E-01 memory=    459 kb  tot_iter=      10
 output: c:\users\mahbod\desktop\part2\sample.mt0
 sweep: tran tran1    begin, stop_t=  1.30E-07 #sweeps=**** cpu clock=  1.47E-01
 tran: time= 1.4920E-08 tot_iter=     126 conv_iter=      48 cpu clock= 1.70E-01
 tran: time= 2.8136E-08 tot_iter=     244 conv_iter=      91 cpu clock= 1.85E-01
 tran: time= 4.0000E-08 tot_iter=     360 conv_iter=     133 cpu clock= 1.96E-01
 tran: time= 5.2066E-08 tot_iter=     575 conv_iter=     211 cpu clock= 2.12E-01
 tran: time= 6.5480E-08 tot_iter=     696 conv_iter=     255 cpu clock= 2.22E-01
 tran: time= 8.0000E-08 tot_iter=     778 conv_iter=     288 cpu clock= 2.30E-01
 tran: time= 9.1551E-08 tot_iter=     967 conv_iter=     356 cpu clock= 2.46E-01
 tran: time= 1.0521E-07 tot_iter=    1051 conv_iter=     389 cpu clock= 2.54E-01
 tran: time= 1.2000E-07 tot_iter=    1131 conv_iter=     420 cpu clock= 2.62E-01
 tran: time= 1.3000E-07 tot_iter=    1258 conv_iter=     465 cpu clock= 2.73E-01
 sweep: tran tran1    end,  cpu clock=  2.76E-01 memory=    460 kb
 parameter: wmin            =    1.31E-07
 dcop: begin dcop,  cpu clock=  2.84E-01
 dcop: end dcop,  cpu clock=  2.87E-01 memory=    459 kb  tot_iter=      20
 output: c:\users\mahbod\desktop\part2\sample.mt0
 sweep: tran tran2    begin, stop_t=  1.30E-07 #sweeps=**** cpu clock=  2.92E-01
 tran: time= 1.4931E-08 tot_iter=     126 conv_iter=      48 cpu clock= 3.03E-01
 tran: time= 2.6103E-08 tot_iter=     243 conv_iter=      90 cpu clock= 3.13E-01
 tran: time= 4.0000E-08 tot_iter=     361 conv_iter=     133 cpu clock= 3.23E-01
 tran: time= 5.2522E-08 tot_iter=     576 conv_iter=     211 cpu clock= 3.40E-01
 tran: time= 6.6117E-08 tot_iter=     696 conv_iter=     257 cpu clock= 3.50E-01
 tran: time= 8.0000E-08 tot_iter=     776 conv_iter=     288 cpu clock= 3.59E-01
 tran: time= 9.1558E-08 tot_iter=     964 conv_iter=     356 cpu clock= 3.74E-01
 tran: time= 1.0526E-07 tot_iter=    1048 conv_iter=     389 cpu clock= 3.83E-01
 tran: time= 1.2000E-07 tot_iter=    1129 conv_iter=     420 cpu clock= 3.91E-01
 tran: time= 1.3000E-07 tot_iter=    1256 conv_iter=     465 cpu clock= 4.02E-01
 sweep: tran tran2    end,  cpu clock=  4.04E-01 memory=    460 kb
 parameter: wmin            =    1.32E-07
 dcop: begin dcop,  cpu clock=  4.09E-01
 dcop: end dcop,  cpu clock=  4.13E-01 memory=    459 kb  tot_iter=      30
 output: c:\users\mahbod\desktop\part2\sample.mt0
 sweep: tran tran3    begin, stop_t=  1.30E-07 #sweeps=**** cpu clock=  4.21E-01
 tran: time= 1.4969E-08 tot_iter=     126 conv_iter=      48 cpu clock= 4.31E-01
 tran: time= 2.6953E-08 tot_iter=     243 conv_iter=      90 cpu clock= 4.41E-01
 tran: time= 4.0000E-08 tot_iter=     359 conv_iter=     132 cpu clock= 4.50E-01
 tran: time= 5.2592E-08 tot_iter=     574 conv_iter=     210 cpu clock= 4.66E-01
 tran: time= 6.6407E-08 tot_iter=     691 conv_iter=     254 cpu clock= 4.76E-01
 tran: time= 8.0000E-08 tot_iter=     771 conv_iter=     285 cpu clock= 4.84E-01
 tran: time= 9.1574E-08 tot_iter=     959 conv_iter=     353 cpu clock= 4.99E-01
 tran: time= 1.0532E-07 tot_iter=    1043 conv_iter=     386 cpu clock= 5.08E-01
 tran: time= 1.2000E-07 tot_iter=    1124 conv_iter=     417 cpu clock= 5.16E-01
 tran: time= 1.3000E-07 tot_iter=    1251 conv_iter=     462 cpu clock= 5.27E-01
 sweep: tran tran3    end,  cpu clock=  5.29E-01 memory=    460 kb
 parameter: wmin            =    1.33E-07
 dcop: begin dcop,  cpu clock=  5.37E-01
 dcop: end dcop,  cpu clock=  5.41E-01 memory=    459 kb  tot_iter=      40
 output: c:\users\mahbod\desktop\part2\sample.mt0
 sweep: tran tran4    begin, stop_t=  1.30E-07 #sweeps=**** cpu clock=  5.46E-01
 tran: time= 1.5026E-08 tot_iter=     126 conv_iter=      48 cpu clock= 5.59E-01
 tran: time= 2.8177E-08 tot_iter=     242 conv_iter=      90 cpu clock= 5.68E-01
 tran: time= 4.0000E-08 tot_iter=     358 conv_iter=     132 cpu clock= 5.78E-01
 tran: time= 5.2704E-08 tot_iter=     571 conv_iter=     209 cpu clock= 5.94E-01
 tran: time= 6.7109E-08 tot_iter=     687 conv_iter=     253 cpu clock= 6.04E-01
 tran: time= 8.0000E-08 tot_iter=     765 conv_iter=     283 cpu clock= 6.12E-01
 tran: time= 9.1602E-08 tot_iter=     953 conv_iter=     351 cpu clock= 6.28E-01
 tran: time= 1.0538E-07 tot_iter=    1037 conv_iter=     384 cpu clock= 6.37E-01
 tran: time= 1.2000E-07 tot_iter=    1118 conv_iter=     415 cpu clock= 6.45E-01
 tran: time= 1.3000E-07 tot_iter=    1245 conv_iter=     460 cpu clock= 6.56E-01
 sweep: tran tran4    end,  cpu clock=  6.58E-01 memory=    460 kb
 parameter: wmin            =    1.34E-07
 dcop: begin dcop,  cpu clock=  6.64E-01
 dcop: end dcop,  cpu clock=  6.70E-01 memory=    459 kb  tot_iter=      50
 output: c:\users\mahbod\desktop\part2\sample.mt0
 sweep: tran tran5    begin, stop_t=  1.30E-07 #sweeps=**** cpu clock=  6.75E-01
 tran: time= 1.5109E-08 tot_iter=     126 conv_iter=      48 cpu clock= 6.85E-01
 tran: time= 2.6768E-08 tot_iter=     240 conv_iter=      89 cpu clock= 6.96E-01
 tran: time= 4.0000E-08 tot_iter=     356 conv_iter=     131 cpu clock= 7.06E-01
 tran: time= 5.3038E-08 tot_iter=     570 conv_iter=     208 cpu clock= 7.22E-01
 tran: time= 6.5416E-08 tot_iter=     683 conv_iter=     251 cpu clock= 7.32E-01
 tran: time= 8.0000E-08 tot_iter=     763 conv_iter=     282 cpu clock= 7.40E-01
 tran: time= 9.1610E-08 tot_iter=     951 conv_iter=     350 cpu clock= 7.55E-01
 tran: time= 1.0543E-07 tot_iter=    1035 conv_iter=     383 cpu clock= 7.64E-01
 tran: time= 1.2000E-07 tot_iter=    1116 conv_iter=     414 cpu clock= 7.72E-01
 tran: time= 1.3000E-07 tot_iter=    1243 conv_iter=     459 cpu clock= 7.83E-01
 sweep: tran tran5    end,  cpu clock=  7.86E-01 memory=    460 kb
 parameter: wmin            =    1.35E-07
 dcop: begin dcop,  cpu clock=  7.91E-01
 dcop: end dcop,  cpu clock=  7.94E-01 memory=    459 kb  tot_iter=      60
 output: c:\users\mahbod\desktop\part2\sample.mt0
 sweep: tran tran6    begin, stop_t=  1.30E-07 #sweeps=**** cpu clock=  8.02E-01
 tran: time= 1.5197E-08 tot_iter=     125 conv_iter=      48 cpu clock= 8.12E-01
 tran: time= 3.0000E-08 tot_iter=     240 conv_iter=      89 cpu clock= 8.22E-01
 tran: time= 4.0000E-08 tot_iter=     353 conv_iter=     130 cpu clock= 8.32E-01
 tran: time= 5.2783E-08 tot_iter=     567 conv_iter=     207 cpu clock= 8.48E-01
 tran: time= 6.5938E-08 tot_iter=     681 conv_iter=     250 cpu clock= 8.58E-01
 tran: time= 8.0000E-08 tot_iter=     761 conv_iter=     281 cpu clock= 8.67E-01
 tran: time= 9.1627E-08 tot_iter=     949 conv_iter=     349 cpu clock= 8.82E-01
 tran: time= 1.0552E-07 tot_iter=    1033 conv_iter=     382 cpu clock= 8.91E-01
 tran: time= 1.2000E-07 tot_iter=    1114 conv_iter=     413 cpu clock= 8.99E-01
 tran: time= 1.3000E-07 tot_iter=    1241 conv_iter=     458 cpu clock= 9.10E-01
 sweep: tran tran6    end,  cpu clock=  9.13E-01 memory=    460 kb
 parameter: wmin            =    1.36E-07
 dcop: begin dcop,  cpu clock=  9.26E-01
 dcop: end dcop,  cpu clock=  9.30E-01 memory=    459 kb  tot_iter=      70
 output: c:\users\mahbod\desktop\part2\sample.mt0
 sweep: tran tran7    begin, stop_t=  1.30E-07 #sweeps=**** cpu clock=  9.41E-01
 tran: time= 1.5335E-08 tot_iter=     125 conv_iter=      48 cpu clock= 9.50E-01
 tran: time= 2.8472E-08 tot_iter=     241 conv_iter=      90 cpu clock= 9.60E-01
 tran: time= 3.9047E-08 tot_iter=     354 conv_iter=     131 cpu clock= 9.70E-01
 tran: time= 5.2791E-08 tot_iter=     568 conv_iter=     208 cpu clock= 9.86E-01
 tran: time= 6.6845E-08 tot_iter=     683 conv_iter=     251 cpu clock= 9.96E-01
 tran: time= 8.0000E-08 tot_iter=     761 conv_iter=     281 cpu clock= 1.00E+00
 tran: time= 9.1666E-08 tot_iter=     948 conv_iter=     349 cpu clock= 1.02E+00
 tran: time= 1.0558E-07 tot_iter=    1032 conv_iter=     382 cpu clock= 1.03E+00
 tran: time= 1.2000E-07 tot_iter=    1113 conv_iter=     413 cpu clock= 1.04E+00
 tran: time= 1.3000E-07 tot_iter=    1240 conv_iter=     458 cpu clock= 1.05E+00
 sweep: tran tran7    end,  cpu clock=  1.05E+00 memory=    460 kb
 parameter: wmin            =    1.37E-07
 dcop: begin dcop,  cpu clock=  1.06E+00
 dcop: end dcop,  cpu clock=  1.06E+00 memory=    459 kb  tot_iter=      80
 output: c:\users\mahbod\desktop\part2\sample.mt0
 sweep: tran tran8    begin, stop_t=  1.30E-07 #sweeps=**** cpu clock=  1.07E+00
 tran: time= 1.5496E-08 tot_iter=     125 conv_iter=      48 cpu clock= 1.08E+00
 tran: time= 2.6658E-08 tot_iter=     236 conv_iter=      87 cpu clock= 1.09E+00
 tran: time= 3.9142E-08 tot_iter=     349 conv_iter=     128 cpu clock= 1.10E+00
 tran: time= 5.2798E-08 tot_iter=     563 conv_iter=     205 cpu clock= 1.11E+00
 tran: time= 6.7153E-08 tot_iter=     677 conv_iter=     248 cpu clock= 1.12E+00
 tran: time= 8.0000E-08 tot_iter=     755 conv_iter=     278 cpu clock= 1.13E+00
 tran: time= 9.1035E-08 tot_iter=     941 conv_iter=     345 cpu clock= 1.15E+00
 tran: time= 1.0564E-07 tot_iter=    1027 conv_iter=     379 cpu clock= 1.16E+00
 tran: time= 1.2000E-07 tot_iter=    1108 conv_iter=     410 cpu clock= 1.17E+00
 tran: time= 1.3000E-07 tot_iter=    1235 conv_iter=     455 cpu clock= 1.18E+00
 sweep: tran tran8    end,  cpu clock=  1.18E+00 memory=    460 kb
 parameter: wmin            =    1.38E-07
 dcop: begin dcop,  cpu clock=  1.19E+00
 dcop: end dcop,  cpu clock=  1.19E+00 memory=    459 kb  tot_iter=      90
 output: c:\users\mahbod\desktop\part2\sample.mt0
 sweep: tran tran9    begin, stop_t=  1.30E-07 #sweeps=**** cpu clock=  1.20E+00
 tran: time= 1.3062E-08 tot_iter=     123 conv_iter=      47 cpu clock= 1.21E+00
 tran: time= 2.6157E-08 tot_iter=     237 conv_iter=      87 cpu clock= 1.22E+00
 tran: time= 4.0000E-08 tot_iter=     351 conv_iter=     130 cpu clock= 1.22E+00
 tran: time= 5.2802E-08 tot_iter=     563 conv_iter=     206 cpu clock= 1.24E+00
 tran: time= 6.7267E-08 tot_iter=     677 conv_iter=     249 cpu clock= 1.25E+00
 tran: time= 8.0000E-08 tot_iter=     755 conv_iter=     279 cpu clock= 1.26E+00
 tran: time= 9.1191E-08 tot_iter=     942 conv_iter=     346 cpu clock= 1.27E+00
 tran: time= 1.0773E-07 tot_iter=    1024 conv_iter=     379 cpu clock= 1.28E+00
 tran: time= 1.2000E-07 tot_iter=    1105 conv_iter=     410 cpu clock= 1.29E+00
 tran: time= 1.3000E-07 tot_iter=    1232 conv_iter=     455 cpu clock= 1.30E+00
 sweep: tran tran9    end,  cpu clock=  1.30E+00 memory=    460 kb
 parameter: wmin            =    1.39E-07
 dcop: begin dcop,  cpu clock=  1.31E+00
 dcop: end dcop,  cpu clock=  1.31E+00 memory=    459 kb  tot_iter=     100
 output: c:\users\mahbod\desktop\part2\sample.mt0
 sweep: tran tran10   begin, stop_t=  1.30E-07 #sweeps=**** cpu clock=  1.32E+00
 tran: time= 1.3153E-08 tot_iter=     123 conv_iter=      47 cpu clock= 1.33E+00
 tran: time= 2.7972E-08 tot_iter=     239 conv_iter=      88 cpu clock= 1.34E+00
 tran: time= 3.9402E-08 tot_iter=     352 conv_iter=     129 cpu clock= 1.35E+00
 tran: time= 5.3284E-08 tot_iter=     564 conv_iter=     209 cpu clock= 1.36E+00
 tran: time= 6.7460E-08 tot_iter=     676 conv_iter=     251 cpu clock= 1.37E+00
 tran: time= 8.0000E-08 tot_iter=     754 conv_iter=     281 cpu clock= 1.38E+00
 tran: time= 9.1290E-08 tot_iter=     941 conv_iter=     348 cpu clock= 1.40E+00
 tran: time= 1.0691E-07 tot_iter=    1026 conv_iter=     383 cpu clock= 1.40E+00
 tran: time= 1.2000E-07 tot_iter=    1107 conv_iter=     414 cpu clock= 1.41E+00
 tran: time= 1.3000E-07 tot_iter=    1234 conv_iter=     459 cpu clock= 1.42E+00
 sweep: tran tran10   end,  cpu clock=  1.43E+00 memory=    460 kb
 parameter: wmin            =    1.40E-07
 dcop: begin dcop,  cpu clock=  1.43E+00
 dcop: end dcop,  cpu clock=  1.44E+00 memory=    459 kb  tot_iter=     110
 output: c:\users\mahbod\desktop\part2\sample.mt0
 sweep: tran tran11   begin, stop_t=  1.30E-07 #sweeps=**** cpu clock=  1.44E+00
 tran: time= 1.3238E-08 tot_iter=     123 conv_iter=      47 cpu clock= 1.45E+00
 tran: time= 2.7878E-08 tot_iter=     239 conv_iter=      88 cpu clock= 1.46E+00
 tran: time= 3.9532E-08 tot_iter=     352 conv_iter=     129 cpu clock= 1.47E+00
 tran: time= 5.2804E-08 tot_iter=     566 conv_iter=     208 cpu clock= 1.49E+00
 tran: time= 6.7680E-08 tot_iter=     680 conv_iter=     251 cpu clock= 1.50E+00
 tran: time= 8.0000E-08 tot_iter=     758 conv_iter=     281 cpu clock= 1.51E+00
 tran: time= 9.1384E-08 tot_iter=     945 conv_iter=     348 cpu clock= 1.52E+00
 tran: time= 1.0585E-07 tot_iter=    1029 conv_iter=     381 cpu clock= 1.53E+00
 tran: time= 1.2000E-07 tot_iter=    1110 conv_iter=     412 cpu clock= 1.54E+00
 tran: time= 1.3000E-07 tot_iter=    1235 conv_iter=     456 cpu clock= 1.55E+00
 sweep: tran tran11   end,  cpu clock=  1.55E+00 memory=    460 kb
 parameter: wmin            =    1.41E-07
 dcop: begin dcop,  cpu clock=  1.56E+00
 dcop: end dcop,  cpu clock=  1.56E+00 memory=    459 kb  tot_iter=     120
 output: c:\users\mahbod\desktop\part2\sample.mt0
 sweep: tran tran12   begin, stop_t=  1.30E-07 #sweeps=**** cpu clock=  1.57E+00
 tran: time= 1.3309E-08 tot_iter=     123 conv_iter=      47 cpu clock= 1.58E+00
 tran: time= 2.7766E-08 tot_iter=     239 conv_iter=      88 cpu clock= 1.59E+00
 tran: time= 4.0000E-08 tot_iter=     352 conv_iter=     129 cpu clock= 1.60E+00
 tran: time= 5.2804E-08 tot_iter=     562 conv_iter=     204 cpu clock= 1.61E+00
 tran: time= 6.7918E-08 tot_iter=     676 conv_iter=     247 cpu clock= 1.62E+00
 tran: time= 8.0000E-08 tot_iter=     754 conv_iter=     277 cpu clock= 1.63E+00
 tran: time= 9.1330E-08 tot_iter=     941 conv_iter=     344 cpu clock= 1.65E+00
 tran: time= 1.0670E-07 tot_iter=    1026 conv_iter=     379 cpu clock= 1.66E+00
 tran: time= 1.2000E-07 tot_iter=    1107 conv_iter=     410 cpu clock= 1.66E+00
 tran: time= 1.3000E-07 tot_iter=    1232 conv_iter=     454 cpu clock= 1.67E+00
 sweep: tran tran12   end,  cpu clock=  1.68E+00 memory=    460 kb
 parameter: wmin            =    1.42E-07
 dcop: begin dcop,  cpu clock=  1.68E+00
 dcop: end dcop,  cpu clock=  1.69E+00 memory=    459 kb  tot_iter=     130
 output: c:\users\mahbod\desktop\part2\sample.mt0
 sweep: tran tran13   begin, stop_t=  1.30E-07 #sweeps=**** cpu clock=  1.69E+00
 tran: time= 1.3361E-08 tot_iter=     123 conv_iter=      47 cpu clock= 1.70E+00
 tran: time= 2.7622E-08 tot_iter=     239 conv_iter=      88 cpu clock= 1.71E+00
 tran: time= 4.0000E-08 tot_iter=     352 conv_iter=     129 cpu clock= 1.72E+00
 tran: time= 5.2517E-08 tot_iter=     559 conv_iter=     204 cpu clock= 1.74E+00
 tran: time= 6.8158E-08 tot_iter=     672 conv_iter=     246 cpu clock= 1.75E+00
 tran: time= 8.0000E-08 tot_iter=     750 conv_iter=     276 cpu clock= 1.76E+00
 tran: time= 9.1410E-08 tot_iter=     938 conv_iter=     343 cpu clock= 1.77E+00
 tran: time= 1.0600E-07 tot_iter=    1022 conv_iter=     376 cpu clock= 1.78E+00
 tran: time= 1.2000E-07 tot_iter=    1103 conv_iter=     407 cpu clock= 1.79E+00
 tran: time= 1.3000E-07 tot_iter=    1228 conv_iter=     451 cpu clock= 1.80E+00
 sweep: tran tran13   end,  cpu clock=  1.80E+00 memory=    460 kb
 parameter: wmin            =    1.43E-07
 dcop: begin dcop,  cpu clock=  1.81E+00
 dcop: end dcop,  cpu clock=  1.81E+00 memory=    459 kb  tot_iter=     140
 output: c:\users\mahbod\desktop\part2\sample.mt0
 sweep: tran tran14   begin, stop_t=  1.30E-07 #sweeps=**** cpu clock=  1.82E+00
 tran: time= 1.3393E-08 tot_iter=     123 conv_iter=      47 cpu clock= 1.83E+00
 tran: time= 2.7397E-08 tot_iter=     239 conv_iter=      88 cpu clock= 1.84E+00
 tran: time= 4.0000E-08 tot_iter=     351 conv_iter=     129 cpu clock= 1.85E+00
 tran: time= 5.2807E-08 tot_iter=     565 conv_iter=     205 cpu clock= 1.87E+00
 tran: time= 6.6958E-08 tot_iter=     681 conv_iter=     248 cpu clock= 1.88E+00
 tran: time= 8.0000E-08 tot_iter=     759 conv_iter=     278 cpu clock= 1.88E+00
 tran: time= 9.1420E-08 tot_iter=     946 conv_iter=     345 cpu clock= 1.90E+00
 tran: time= 1.0608E-07 tot_iter=    1030 conv_iter=     378 cpu clock= 1.91E+00
 tran: time= 1.2000E-07 tot_iter=    1111 conv_iter=     409 cpu clock= 1.92E+00
 tran: time= 1.3000E-07 tot_iter=    1236 conv_iter=     453 cpu clock= 1.93E+00
 sweep: tran tran14   end,  cpu clock=  1.93E+00 memory=    460 kb
 parameter: wmin            =    1.44E-07
 dcop: begin dcop,  cpu clock=  1.94E+00
 dcop: end dcop,  cpu clock=  1.94E+00 memory=    459 kb  tot_iter=     150
 output: c:\users\mahbod\desktop\part2\sample.mt0
 sweep: tran tran15   begin, stop_t=  1.30E-07 #sweeps=**** cpu clock=  1.95E+00
 tran: time= 1.3411E-08 tot_iter=     123 conv_iter=      47 cpu clock= 1.96E+00
 tran: time= 2.7195E-08 tot_iter=     239 conv_iter=      88 cpu clock= 1.97E+00
 tran: time= 4.0000E-08 tot_iter=     351 conv_iter=     129 cpu clock= 1.98E+00
 tran: time= 5.2805E-08 tot_iter=     564 conv_iter=     205 cpu clock= 1.99E+00
 tran: time= 6.6063E-08 tot_iter=     679 conv_iter=     248 cpu clock= 2.00E+00
 tran: time= 8.0000E-08 tot_iter=     757 conv_iter=     278 cpu clock= 2.01E+00
 tran: time= 9.1462E-08 tot_iter=     943 conv_iter=     345 cpu clock= 2.02E+00
 tran: time= 1.0664E-07 tot_iter=    1028 conv_iter=     380 cpu clock= 2.03E+00
 tran: time= 1.2000E-07 tot_iter=    1109 conv_iter=     411 cpu clock= 2.04E+00
 tran: time= 1.3000E-07 tot_iter=    1232 conv_iter=     455 cpu clock= 2.05E+00
 sweep: tran tran15   end,  cpu clock=  2.05E+00 memory=    460 kb
 parameter: wmin            =    1.45E-07
 dcop: begin dcop,  cpu clock=  2.06E+00
 dcop: end dcop,  cpu clock=  2.06E+00 memory=    459 kb  tot_iter=     160
 output: c:\users\mahbod\desktop\part2\sample.mt0
 sweep: tran tran16   begin, stop_t=  1.30E-07 #sweeps=**** cpu clock=  2.07E+00
 tran: time= 1.3428E-08 tot_iter=     123 conv_iter=      47 cpu clock= 2.08E+00
 tran: time= 2.7014E-08 tot_iter=     239 conv_iter=      88 cpu clock= 2.09E+00
 tran: time= 4.0000E-08 tot_iter=     351 conv_iter=     129 cpu clock= 2.10E+00
 tran: time= 5.2809E-08 tot_iter=     563 conv_iter=     205 cpu clock= 2.12E+00
 tran: time= 6.5439E-08 tot_iter=     678 conv_iter=     248 cpu clock= 2.13E+00
 tran: time= 8.0000E-08 tot_iter=     758 conv_iter=     279 cpu clock= 2.13E+00
 tran: time= 9.1514E-08 tot_iter=     944 conv_iter=     346 cpu clock= 2.15E+00
 tran: time= 1.0703E-07 tot_iter=    1029 conv_iter=     381 cpu clock= 2.16E+00
 tran: time= 1.2000E-07 tot_iter=    1110 conv_iter=     412 cpu clock= 2.17E+00
 tran: time= 1.3000E-07 tot_iter=    1233 conv_iter=     456 cpu clock= 2.18E+00
 sweep: tran tran16   end,  cpu clock=  2.18E+00 memory=    460 kb
 parameter: wmin            =    1.46E-07
 dcop: begin dcop,  cpu clock=  2.19E+00
 dcop: end dcop,  cpu clock=  2.19E+00 memory=    459 kb  tot_iter=     170
 output: c:\users\mahbod\desktop\part2\sample.mt0
 sweep: tran tran17   begin, stop_t=  1.30E-07 #sweeps=**** cpu clock=  2.20E+00
 tran: time= 1.3454E-08 tot_iter=     123 conv_iter=      47 cpu clock= 2.21E+00
 tran: time= 2.6838E-08 tot_iter=     239 conv_iter=      88 cpu clock= 2.22E+00
 tran: time= 4.0000E-08 tot_iter=     351 conv_iter=     129 cpu clock= 2.23E+00
 tran: time= 5.2804E-08 tot_iter=     563 conv_iter=     205 cpu clock= 2.24E+00
 tran: time= 6.5029E-08 tot_iter=     677 conv_iter=     248 cpu clock= 2.25E+00
 tran: time= 8.0000E-08 tot_iter=     757 conv_iter=     279 cpu clock= 2.26E+00
 tran: time= 9.1509E-08 tot_iter=     941 conv_iter=     346 cpu clock= 2.28E+00
 tran: time= 1.0633E-07 tot_iter=    1025 conv_iter=     379 cpu clock= 2.28E+00
 tran: time= 1.2000E-07 tot_iter=    1106 conv_iter=     410 cpu clock= 2.29E+00
 tran: time= 1.3000E-07 tot_iter=    1229 conv_iter=     454 cpu clock= 2.30E+00
 sweep: tran tran17   end,  cpu clock=  2.31E+00 memory=    460 kb
 parameter: wmin            =    1.47E-07
 dcop: begin dcop,  cpu clock=  2.31E+00
 dcop: end dcop,  cpu clock=  2.31E+00 memory=    459 kb  tot_iter=     180
 output: c:\users\mahbod\desktop\part2\sample.mt0
 sweep: tran tran18   begin, stop_t=  1.30E-07 #sweeps=**** cpu clock=  2.32E+00
 tran: time= 1.3499E-08 tot_iter=     123 conv_iter=      47 cpu clock= 2.33E+00
 tran: time= 2.6618E-08 tot_iter=     238 conv_iter=      88 cpu clock= 2.34E+00
 tran: time= 4.0000E-08 tot_iter=     350 conv_iter=     129 cpu clock= 2.35E+00
 tran: time= 5.2814E-08 tot_iter=     563 conv_iter=     205 cpu clock= 2.37E+00
 tran: time= 6.7131E-08 tot_iter=     679 conv_iter=     249 cpu clock= 2.38E+00
 tran: time= 8.0000E-08 tot_iter=     757 conv_iter=     279 cpu clock= 2.39E+00
 tran: time= 9.1521E-08 tot_iter=     941 conv_iter=     346 cpu clock= 2.40E+00
 tran: time= 1.0639E-07 tot_iter=    1025 conv_iter=     379 cpu clock= 2.41E+00
 tran: time= 1.2000E-07 tot_iter=    1106 conv_iter=     410 cpu clock= 2.42E+00
 tran: time= 1.3000E-07 tot_iter=    1228 conv_iter=     454 cpu clock= 2.43E+00
 sweep: tran tran18   end,  cpu clock=  2.43E+00 memory=    460 kb
 parameter: wmin            =    1.48E-07
 dcop: begin dcop,  cpu clock=  2.44E+00
 dcop: end dcop,  cpu clock=  2.44E+00 memory=    459 kb  tot_iter=     190
 output: c:\users\mahbod\desktop\part2\sample.mt0
 sweep: tran tran19   begin, stop_t=  1.30E-07 #sweeps=**** cpu clock=  2.45E+00
 tran: time= 1.3576E-08 tot_iter=     123 conv_iter=      47 cpu clock= 2.46E+00
 tran: time= 2.6359E-08 tot_iter=     238 conv_iter=      88 cpu clock= 2.47E+00
 tran: time= 4.0000E-08 tot_iter=     352 conv_iter=     130 cpu clock= 2.48E+00
 tran: time= 5.4564E-08 tot_iter=     563 conv_iter=     205 cpu clock= 2.49E+00
 tran: time= 6.6798E-08 tot_iter=     675 conv_iter=     247 cpu clock= 2.50E+00
 tran: time= 8.0000E-08 tot_iter=     753 conv_iter=     277 cpu clock= 2.51E+00
 tran: time= 9.1544E-08 tot_iter=     936 conv_iter=     344 cpu clock= 2.53E+00
 tran: time= 1.0646E-07 tot_iter=    1020 conv_iter=     377 cpu clock= 2.54E+00
 tran: time= 1.2000E-07 tot_iter=    1101 conv_iter=     408 cpu clock= 2.54E+00
 tran: time= 1.3000E-07 tot_iter=    1222 conv_iter=     452 cpu clock= 2.55E+00
 sweep: tran tran19   end,  cpu clock=  2.56E+00 memory=    460 kb
 parameter: wmin            =    1.49E-07
 dcop: begin dcop,  cpu clock=  2.56E+00
 dcop: end dcop,  cpu clock=  2.57E+00 memory=    459 kb  tot_iter=     200
 output: c:\users\mahbod\desktop\part2\sample.mt0
 sweep: tran tran20   begin, stop_t=  1.30E-07 #sweeps=**** cpu clock=  2.57E+00
 tran: time= 1.3693E-08 tot_iter=     123 conv_iter=      47 cpu clock= 2.58E+00
 tran: time= 2.6037E-08 tot_iter=     238 conv_iter=      88 cpu clock= 2.59E+00
 tran: time= 4.0000E-08 tot_iter=     352 conv_iter=     130 cpu clock= 2.60E+00
 tran: time= 5.2927E-08 tot_iter=     567 conv_iter=     207 cpu clock= 2.62E+00
 tran: time= 6.6544E-08 tot_iter=     682 conv_iter=     251 cpu clock= 2.63E+00
 tran: time= 8.0000E-08 tot_iter=     759 conv_iter=     282 cpu clock= 2.64E+00
 tran: time= 9.1579E-08 tot_iter=     942 conv_iter=     349 cpu clock= 2.65E+00
 tran: time= 1.0652E-07 tot_iter=    1026 conv_iter=     382 cpu clock= 2.66E+00
 tran: time= 1.2000E-07 tot_iter=    1107 conv_iter=     413 cpu clock= 2.67E+00
 tran: time= 1.3000E-07 tot_iter=    1228 conv_iter=     457 cpu clock= 2.68E+00
 sweep: tran tran20   end,  cpu clock=  2.68E+00 memory=    460 kb
 parameter: wmin            =    1.50E-07
 dcop: begin dcop,  cpu clock=  2.70E+00
 dcop: end dcop,  cpu clock=  2.70E+00 memory=    459 kb  tot_iter=     210
 output: c:\users\mahbod\desktop\part2\sample.mt0
 sweep: tran tran21   begin, stop_t=  1.30E-07 #sweeps=**** cpu clock=  2.71E+00
 tran: time= 1.3866E-08 tot_iter=     123 conv_iter=      47 cpu clock= 2.72E+00
 tran: time= 2.6584E-08 tot_iter=     239 conv_iter=      88 cpu clock= 2.73E+00
 tran: time= 4.0000E-08 tot_iter=     351 conv_iter=     129 cpu clock= 2.74E+00
 tran: time= 5.2168E-08 tot_iter=     560 conv_iter=     204 cpu clock= 2.75E+00
 tran: time= 6.6391E-08 tot_iter=     672 conv_iter=     247 cpu clock= 2.76E+00
 tran: time= 8.0000E-08 tot_iter=     752 conv_iter=     278 cpu clock= 2.77E+00
 tran: time= 9.1007E-08 tot_iter=     933 conv_iter=     344 cpu clock= 2.79E+00
 tran: time= 1.0659E-07 tot_iter=    1019 conv_iter=     378 cpu clock= 2.79E+00
 tran: time= 1.2000E-07 tot_iter=    1100 conv_iter=     409 cpu clock= 2.80E+00
 tran: time= 1.3000E-07 tot_iter=    1221 conv_iter=     453 cpu clock= 2.81E+00
 sweep: tran tran21   end,  cpu clock=  2.82E+00 memory=    460 kb
 parameter: wmin            =    1.51E-07
 dcop: begin dcop,  cpu clock=  2.83E+00
 dcop: end dcop,  cpu clock=  2.83E+00 memory=    459 kb  tot_iter=     220
 output: c:\users\mahbod\desktop\part2\sample.mt0
 sweep: tran tran22   begin, stop_t=  1.30E-07 #sweeps=**** cpu clock=  2.83E+00
 tran: time= 1.4120E-08 tot_iter=     123 conv_iter=      47 cpu clock= 2.85E+00
 tran: time= 2.7418E-08 tot_iter=     239 conv_iter=      88 cpu clock= 2.86E+00
 tran: time= 4.0000E-08 tot_iter=     351 conv_iter=     129 cpu clock= 2.87E+00
 tran: time= 5.2802E-08 tot_iter=     562 conv_iter=     205 cpu clock= 2.88E+00
 tran: time= 6.6159E-08 tot_iter=     678 conv_iter=     249 cpu clock= 2.89E+00
 tran: time= 8.0000E-08 tot_iter=     758 conv_iter=     280 cpu clock= 2.90E+00
 tran: time= 9.1069E-08 tot_iter=     939 conv_iter=     346 cpu clock= 2.92E+00
 tran: time= 1.0667E-07 tot_iter=    1025 conv_iter=     380 cpu clock= 2.92E+00
 tran: time= 1.2000E-07 tot_iter=    1106 conv_iter=     411 cpu clock= 2.93E+00
 tran: time= 1.3000E-07 tot_iter=    1227 conv_iter=     455 cpu clock= 2.94E+00
 sweep: tran tran22   end,  cpu clock=  2.95E+00 memory=    460 kb
 parameter: wmin            =    1.52E-07
 dcop: begin dcop,  cpu clock=  2.95E+00
 dcop: end dcop,  cpu clock=  2.96E+00 memory=    459 kb  tot_iter=     230
 output: c:\users\mahbod\desktop\part2\sample.mt0
 sweep: tran tran23   begin, stop_t=  1.30E-07 #sweeps=**** cpu clock=  2.96E+00
 tran: time= 1.4505E-08 tot_iter=     122 conv_iter=      47 cpu clock= 2.98E+00
 tran: time= 2.8567E-08 tot_iter=     236 conv_iter=      87 cpu clock= 2.99E+00
 tran: time= 4.0000E-08 tot_iter=     348 conv_iter=     128 cpu clock= 3.00E+00
 tran: time= 5.2813E-08 tot_iter=     558 conv_iter=     204 cpu clock= 3.01E+00
 tran: time= 6.6058E-08 tot_iter=     674 conv_iter=     248 cpu clock= 3.02E+00
 tran: time= 8.0000E-08 tot_iter=     754 conv_iter=     279 cpu clock= 3.03E+00
 tran: time= 9.1231E-08 tot_iter=     935 conv_iter=     345 cpu clock= 3.04E+00
 tran: time= 1.0674E-07 tot_iter=    1021 conv_iter=     379 cpu clock= 3.05E+00
 tran: time= 1.2000E-07 tot_iter=    1102 conv_iter=     410 cpu clock= 3.06E+00
 tran: time= 1.3000E-07 tot_iter=    1223 conv_iter=     454 cpu clock= 3.07E+00
 sweep: tran tran23   end,  cpu clock=  3.08E+00 memory=    460 kb
 parameter: wmin            =    1.53E-07
 dcop: begin dcop,  cpu clock=  3.08E+00
 dcop: end dcop,  cpu clock=  3.08E+00 memory=    459 kb  tot_iter=     240
 output: c:\users\mahbod\desktop\part2\sample.mt0
 sweep: tran tran24   begin, stop_t=  1.30E-07 #sweeps=**** cpu clock=  3.09E+00
 tran: time= 1.5088E-08 tot_iter=     123 conv_iter=      47 cpu clock= 3.10E+00
 tran: time= 2.9156E-08 tot_iter=     236 conv_iter=      87 cpu clock= 3.11E+00
 tran: time= 4.0000E-08 tot_iter=     348 conv_iter=     128 cpu clock= 3.12E+00
 tran: time= 5.2824E-08 tot_iter=     559 conv_iter=     204 cpu clock= 3.14E+00
 tran: time= 6.5970E-08 tot_iter=     676 conv_iter=     248 cpu clock= 3.15E+00
 tran: time= 8.0000E-08 tot_iter=     756 conv_iter=     279 cpu clock= 3.16E+00
 tran: time= 9.1292E-08 tot_iter=     938 conv_iter=     345 cpu clock= 3.17E+00
 tran: time= 1.0682E-07 tot_iter=    1024 conv_iter=     379 cpu clock= 3.18E+00
 tran: time= 1.2000E-07 tot_iter=    1105 conv_iter=     410 cpu clock= 3.19E+00
 tran: time= 1.3000E-07 tot_iter=    1225 conv_iter=     454 cpu clock= 3.20E+00
 sweep: tran tran24   end,  cpu clock=  3.20E+00 memory=    460 kb
 parameter: wmin            =    1.54E-07
 dcop: begin dcop,  cpu clock=  3.21E+00
 dcop: end dcop,  cpu clock=  3.21E+00 memory=    459 kb  tot_iter=     250
 output: c:\users\mahbod\desktop\part2\sample.mt0
 sweep: tran tran25   begin, stop_t=  1.30E-07 #sweeps=**** cpu clock=  3.22E+00
 tran: time= 1.5394E-08 tot_iter=     123 conv_iter=      47 cpu clock= 3.23E+00
 tran: time= 2.6189E-08 tot_iter=     234 conv_iter=      86 cpu clock= 3.24E+00
 tran: time= 4.0000E-08 tot_iter=     346 conv_iter=     127 cpu clock= 3.25E+00
 tran: time= 5.2836E-08 tot_iter=     558 conv_iter=     203 cpu clock= 3.27E+00
 tran: time= 6.5898E-08 tot_iter=     675 conv_iter=     247 cpu clock= 3.28E+00
 tran: time= 8.0000E-08 tot_iter=     755 conv_iter=     278 cpu clock= 3.29E+00
 tran: time= 9.1357E-08 tot_iter=     937 conv_iter=     344 cpu clock= 3.30E+00
 tran: time= 1.0690E-07 tot_iter=    1023 conv_iter=     378 cpu clock= 3.31E+00
 tran: time= 1.2000E-07 tot_iter=    1104 conv_iter=     409 cpu clock= 3.32E+00
 tran: time= 1.3000E-07 tot_iter=    1224 conv_iter=     453 cpu clock= 3.33E+00
 sweep: tran tran25   end,  cpu clock=  3.33E+00 memory=    460 kb
 parameter: wmin            =    1.55E-07
 dcop: begin dcop,  cpu clock=  3.34E+00
 dcop: end dcop,  cpu clock=  3.34E+00 memory=    459 kb  tot_iter=     260
 output: c:\users\mahbod\desktop\part2\sample.mt0
 sweep: tran tran26   begin, stop_t=  1.30E-07 #sweeps=**** cpu clock=  3.35E+00
 tran: time= 1.5705E-08 tot_iter=     123 conv_iter=      47 cpu clock= 3.36E+00
 tran: time= 2.6473E-08 tot_iter=     234 conv_iter=      86 cpu clock= 3.37E+00
 tran: time= 4.0000E-08 tot_iter=     346 conv_iter=     127 cpu clock= 3.38E+00
 tran: time= 5.2852E-08 tot_iter=     558 conv_iter=     203 cpu clock= 3.39E+00
 tran: time= 6.5845E-08 tot_iter=     676 conv_iter=     247 cpu clock= 3.40E+00
 tran: time= 8.0000E-08 tot_iter=     756 conv_iter=     278 cpu clock= 3.41E+00
 tran: time= 9.1361E-08 tot_iter=     938 conv_iter=     344 cpu clock= 3.43E+00
 tran: time= 1.0698E-07 tot_iter=    1024 conv_iter=     378 cpu clock= 3.44E+00
 tran: time= 1.2000E-07 tot_iter=    1105 conv_iter=     409 cpu clock= 3.44E+00
 tran: time= 1.3000E-07 tot_iter=    1225 conv_iter=     453 cpu clock= 3.46E+00
 sweep: tran tran26   end,  cpu clock=  3.46E+00 memory=    460 kb
 parameter: wmin            =    1.56E-07
 dcop: begin dcop,  cpu clock=  3.47E+00
 dcop: end dcop,  cpu clock=  3.47E+00 memory=    459 kb  tot_iter=     270
 output: c:\users\mahbod\desktop\part2\sample.mt0
 sweep: tran tran27   begin, stop_t=  1.30E-07 #sweeps=**** cpu clock=  3.48E+00
 tran: time= 1.6164E-08 tot_iter=     123 conv_iter=      47 cpu clock= 3.49E+00
 tran: time= 2.6567E-08 tot_iter=     234 conv_iter=      86 cpu clock= 3.50E+00
 tran: time= 4.0000E-08 tot_iter=     346 conv_iter=     127 cpu clock= 3.51E+00
 tran: time= 5.2871E-08 tot_iter=     558 conv_iter=     203 cpu clock= 3.53E+00
 tran: time= 6.5820E-08 tot_iter=     677 conv_iter=     247 cpu clock= 3.54E+00
 tran: time= 8.0000E-08 tot_iter=     757 conv_iter=     278 cpu clock= 3.54E+00
 tran: time= 9.1358E-08 tot_iter=     940 conv_iter=     344 cpu clock= 3.56E+00
 tran: time= 1.0707E-07 tot_iter=    1026 conv_iter=     378 cpu clock= 3.57E+00
 tran: time= 1.2000E-07 tot_iter=    1107 conv_iter=     409 cpu clock= 3.58E+00
 tran: time= 1.3000E-07 tot_iter=    1227 conv_iter=     453 cpu clock= 3.59E+00
 sweep: tran tran27   end,  cpu clock=  3.59E+00 memory=    460 kb
 parameter: wmin            =    1.57E-07
 dcop: begin dcop,  cpu clock=  3.60E+00
 dcop: end dcop,  cpu clock=  3.60E+00 memory=    459 kb  tot_iter=     280
 output: c:\users\mahbod\desktop\part2\sample.mt0
 sweep: tran tran28   begin, stop_t=  1.30E-07 #sweeps=**** cpu clock=  3.61E+00
 tran: time= 1.5482E-08 tot_iter=     123 conv_iter=      47 cpu clock= 3.62E+00
 tran: time= 2.6621E-08 tot_iter=     234 conv_iter=      86 cpu clock= 3.63E+00
 tran: time= 4.0000E-08 tot_iter=     346 conv_iter=     127 cpu clock= 3.64E+00
 tran: time= 5.2892E-08 tot_iter=     558 conv_iter=     203 cpu clock= 3.66E+00
 tran: time= 6.5890E-08 tot_iter=     676 conv_iter=     247 cpu clock= 3.67E+00
 tran: time= 8.0000E-08 tot_iter=     756 conv_iter=     278 cpu clock= 3.67E+00
 tran: time= 9.1374E-08 tot_iter=     939 conv_iter=     344 cpu clock= 3.69E+00
 tran: time= 1.0715E-07 tot_iter=    1025 conv_iter=     378 cpu clock= 3.70E+00
 tran: time= 1.2000E-07 tot_iter=    1106 conv_iter=     409 cpu clock= 3.71E+00
 tran: time= 1.3000E-07 tot_iter=    1227 conv_iter=     453 cpu clock= 3.72E+00
 sweep: tran tran28   end,  cpu clock=  3.73E+00 memory=    460 kb
 parameter: wmin            =    1.58E-07
 dcop: begin dcop,  cpu clock=  3.75E+00
 dcop: end dcop,  cpu clock=  3.76E+00 memory=    459 kb  tot_iter=     290
 output: c:\users\mahbod\desktop\part2\sample.mt0
 sweep: tran tran29   begin, stop_t=  1.30E-07 #sweeps=**** cpu clock=  3.76E+00
 tran: time= 1.5919E-08 tot_iter=     123 conv_iter=      47 cpu clock= 3.77E+00
 tran: time= 2.6672E-08 tot_iter=     234 conv_iter=      86 cpu clock= 3.78E+00
 tran: time= 4.0000E-08 tot_iter=     346 conv_iter=     127 cpu clock= 3.79E+00
 tran: time= 5.2915E-08 tot_iter=     557 conv_iter=     203 cpu clock= 3.81E+00
 tran: time= 6.5808E-08 tot_iter=     676 conv_iter=     247 cpu clock= 3.82E+00
 tran: time= 8.0000E-08 tot_iter=     756 conv_iter=     278 cpu clock= 3.83E+00
 tran: time= 9.1420E-08 tot_iter=     937 conv_iter=     344 cpu clock= 3.84E+00
 tran: time= 1.0724E-07 tot_iter=    1023 conv_iter=     378 cpu clock= 3.85E+00
 tran: time= 1.2000E-07 tot_iter=    1104 conv_iter=     409 cpu clock= 3.86E+00
 tran: time= 1.3000E-07 tot_iter=    1225 conv_iter=     453 cpu clock= 3.87E+00
 sweep: tran tran29   end,  cpu clock=  3.87E+00 memory=    460 kb
 parameter: wmin            =    1.59E-07
 dcop: begin dcop,  cpu clock=  3.88E+00
 dcop: end dcop,  cpu clock=  3.88E+00 memory=    459 kb  tot_iter=     300
 output: c:\users\mahbod\desktop\part2\sample.mt0
 sweep: tran tran30   begin, stop_t=  1.30E-07 #sweeps=**** cpu clock=  3.89E+00
 tran: time= 1.3016E-08 tot_iter=     121 conv_iter=      46 cpu clock= 3.90E+00
 tran: time= 2.6699E-08 tot_iter=     234 conv_iter=      86 cpu clock= 3.90E+00
 tran: time= 4.0000E-08 tot_iter=     346 conv_iter=     127 cpu clock= 3.92E+00
 tran: time= 5.2938E-08 tot_iter=     558 conv_iter=     203 cpu clock= 3.93E+00
 tran: time= 6.5649E-08 tot_iter=     677 conv_iter=     247 cpu clock= 3.94E+00
 tran: time= 8.0000E-08 tot_iter=     757 conv_iter=     278 cpu clock= 3.95E+00
 tran: time= 9.1405E-08 tot_iter=     939 conv_iter=     344 cpu clock= 3.96E+00
 tran: time= 1.0734E-07 tot_iter=    1025 conv_iter=     378 cpu clock= 3.97E+00
 tran: time= 1.2000E-07 tot_iter=    1106 conv_iter=     409 cpu clock= 3.98E+00
 tran: time= 1.3000E-07 tot_iter=    1228 conv_iter=     453 cpu clock= 3.99E+00
 sweep: tran tran30   end,  cpu clock=  4.00E+00 memory=    460 kb
 parameter: wmin            =    1.60E-07
 dcop: begin dcop,  cpu clock=  4.00E+00
 dcop: end dcop,  cpu clock=  4.00E+00 memory=    459 kb  tot_iter=     310
 output: c:\users\mahbod\desktop\part2\sample.mt0
 sweep: tran tran31   begin, stop_t=  1.30E-07 #sweeps=**** cpu clock=  4.01E+00
 tran: time= 1.3190E-08 tot_iter=     121 conv_iter=      46 cpu clock= 4.02E+00
 tran: time= 2.6697E-08 tot_iter=     233 conv_iter=      86 cpu clock= 4.03E+00
 tran: time= 4.0000E-08 tot_iter=     345 conv_iter=     127 cpu clock= 4.04E+00
 tran: time= 5.2963E-08 tot_iter=     557 conv_iter=     203 cpu clock= 4.05E+00
 tran: time= 6.5432E-08 tot_iter=     678 conv_iter=     247 cpu clock= 4.06E+00
 tran: time= 8.0000E-08 tot_iter=     758 conv_iter=     278 cpu clock= 4.07E+00
 tran: time= 9.1349E-08 tot_iter=     939 conv_iter=     344 cpu clock= 4.09E+00
 tran: time= 1.0677E-07 tot_iter=    1023 conv_iter=     379 cpu clock= 4.10E+00
 tran: time= 1.2000E-07 tot_iter=    1104 conv_iter=     410 cpu clock= 4.11E+00
 tran: time= 1.3000E-07 tot_iter=    1225 conv_iter=     454 cpu clock= 4.12E+00
 sweep: tran tran31   end,  cpu clock=  4.12E+00 memory=    460 kb
 parameter: wmin            =    1.61E-07
 dcop: begin dcop,  cpu clock=  4.13E+00
 dcop: end dcop,  cpu clock=  4.13E+00 memory=    459 kb  tot_iter=     320
 output: c:\users\mahbod\desktop\part2\sample.mt0
 sweep: tran tran32   begin, stop_t=  1.30E-07 #sweeps=**** cpu clock=  4.13E+00
 tran: time= 1.3390E-08 tot_iter=     121 conv_iter=      46 cpu clock= 4.14E+00
 tran: time= 2.6686E-08 tot_iter=     233 conv_iter=      86 cpu clock= 4.15E+00
 tran: time= 4.0000E-08 tot_iter=     345 conv_iter=     127 cpu clock= 4.16E+00
 tran: time= 5.2989E-08 tot_iter=     558 conv_iter=     203 cpu clock= 4.18E+00
 tran: time= 6.5163E-08 tot_iter=     679 conv_iter=     247 cpu clock= 4.19E+00
 tran: time= 8.0000E-08 tot_iter=     759 conv_iter=     278 cpu clock= 4.20E+00
 tran: time= 9.1172E-08 tot_iter=     940 conv_iter=     344 cpu clock= 4.21E+00
 tran: time= 1.0752E-07 tot_iter=    1026 conv_iter=     378 cpu clock= 4.22E+00
 tran: time= 1.2000E-07 tot_iter=    1107 conv_iter=     409 cpu clock= 4.23E+00
 tran: time= 1.3000E-07 tot_iter=    1226 conv_iter=     452 cpu clock= 4.24E+00
 sweep: tran tran32   end,  cpu clock=  4.24E+00 memory=    460 kb
 parameter: wmin            =    1.62E-07
 dcop: begin dcop,  cpu clock=  4.25E+00
 dcop: end dcop,  cpu clock=  4.25E+00 memory=    459 kb  tot_iter=     330
 output: c:\users\mahbod\desktop\part2\sample.mt0
 sweep: tran tran33   begin, stop_t=  1.30E-07 #sweeps=**** cpu clock=  4.25E+00
 tran: time= 1.3057E-08 tot_iter=     121 conv_iter=      46 cpu clock= 4.26E+00
 tran: time= 2.6668E-08 tot_iter=     232 conv_iter=      86 cpu clock= 4.27E+00
 tran: time= 4.0000E-08 tot_iter=     344 conv_iter=     127 cpu clock= 4.28E+00
 tran: time= 5.3018E-08 tot_iter=     558 conv_iter=     203 cpu clock= 4.30E+00
 tran: time= 6.5050E-08 tot_iter=     678 conv_iter=     247 cpu clock= 4.31E+00
 tran: time= 8.0000E-08 tot_iter=     760 conv_iter=     279 cpu clock= 4.31E+00
 tran: time= 9.1127E-08 tot_iter=     941 conv_iter=     345 cpu clock= 4.33E+00
 tran: time= 1.0690E-07 tot_iter=    1026 conv_iter=     380 cpu clock= 4.34E+00
 tran: time= 1.2000E-07 tot_iter=    1107 conv_iter=     411 cpu clock= 4.35E+00
 tran: time= 1.3000E-07 tot_iter=    1227 conv_iter=     454 cpu clock= 4.36E+00
 sweep: tran tran33   end,  cpu clock=  4.36E+00 memory=    460 kb
 parameter: wmin            =    1.63E-07
 dcop: begin dcop,  cpu clock=  4.37E+00
 dcop: end dcop,  cpu clock=  4.37E+00 memory=    459 kb  tot_iter=     340
 output: c:\users\mahbod\desktop\part2\sample.mt0
 sweep: tran tran34   begin, stop_t=  1.30E-07 #sweeps=**** cpu clock=  4.37E+00
 tran: time= 1.6009E-08 tot_iter=     123 conv_iter=      47 cpu clock= 4.38E+00
 tran: time= 2.6438E-08 tot_iter=     232 conv_iter=      86 cpu clock= 4.39E+00
 tran: time= 4.0000E-08 tot_iter=     344 conv_iter=     127 cpu clock= 4.40E+00
 tran: time= 5.3047E-08 tot_iter=     559 conv_iter=     203 cpu clock= 4.42E+00
 tran: time= 6.6696E-08 tot_iter=     681 conv_iter=     248 cpu clock= 4.43E+00
 tran: time= 8.0000E-08 tot_iter=     761 conv_iter=     279 cpu clock= 4.43E+00
 tran: time= 9.1127E-08 tot_iter=     942 conv_iter=     345 cpu clock= 4.45E+00
 tran: time= 1.0712E-07 tot_iter=    1026 conv_iter=     380 cpu clock= 4.46E+00
 tran: time= 1.2000E-07 tot_iter=    1107 conv_iter=     411 cpu clock= 4.47E+00
 tran: time= 1.3000E-07 tot_iter=    1224 conv_iter=     454 cpu clock= 4.48E+00
 sweep: tran tran34   end,  cpu clock=  4.48E+00 memory=    460 kb
 parameter: wmin            =    1.64E-07
 dcop: begin dcop,  cpu clock=  4.49E+00
 dcop: end dcop,  cpu clock=  4.49E+00 memory=    459 kb  tot_iter=     350
 output: c:\users\mahbod\desktop\part2\sample.mt0
 sweep: tran tran35   begin, stop_t=  1.30E-07 #sweeps=**** cpu clock=  4.49E+00
 tran: time= 1.5783E-08 tot_iter=     122 conv_iter=      47 cpu clock= 4.50E+00
 tran: time= 2.6301E-08 tot_iter=     231 conv_iter=      86 cpu clock= 4.51E+00
 tran: time= 4.0000E-08 tot_iter=     343 conv_iter=     127 cpu clock= 4.52E+00
 tran: time= 5.3077E-08 tot_iter=     558 conv_iter=     203 cpu clock= 4.54E+00
 tran: time= 6.6522E-08 tot_iter=     680 conv_iter=     248 cpu clock= 4.55E+00
 tran: time= 8.0000E-08 tot_iter=     760 conv_iter=     279 cpu clock= 4.55E+00
 tran: time= 9.1128E-08 tot_iter=     941 conv_iter=     345 cpu clock= 4.57E+00
 tran: time= 1.0729E-07 tot_iter=    1026 conv_iter=     380 cpu clock= 4.58E+00
 tran: time= 1.2000E-07 tot_iter=    1107 conv_iter=     411 cpu clock= 4.59E+00
 tran: time= 1.3000E-07 tot_iter=    1223 conv_iter=     454 cpu clock= 4.60E+00
 sweep: tran tran35   end,  cpu clock=  4.60E+00 memory=    460 kb
 parameter: wmin            =    1.65E-07
 dcop: begin dcop,  cpu clock=  4.60E+00
 dcop: end dcop,  cpu clock=  4.61E+00 memory=    459 kb  tot_iter=     360
 output: c:\users\mahbod\desktop\part2\sample.mt0
 sweep: tran tran36   begin, stop_t=  1.30E-07 #sweeps=**** cpu clock=  4.61E+00
 tran: time= 1.3010E-08 tot_iter=     121 conv_iter=      46 cpu clock= 4.62E+00
 tran: time= 2.6248E-08 tot_iter=     232 conv_iter=      86 cpu clock= 4.63E+00
 tran: time= 4.0000E-08 tot_iter=     344 conv_iter=     127 cpu clock= 4.64E+00
 tran: time= 5.3108E-08 tot_iter=     560 conv_iter=     203 cpu clock= 4.66E+00
 tran: time= 6.6366E-08 tot_iter=     682 conv_iter=     248 cpu clock= 4.67E+00
 tran: time= 8.0000E-08 tot_iter=     762 conv_iter=     279 cpu clock= 4.67E+00
 tran: time= 9.1128E-08 tot_iter=     943 conv_iter=     345 cpu clock= 4.69E+00
 tran: time= 1.0700E-07 tot_iter=    1028 conv_iter=     380 cpu clock= 4.70E+00
 tran: time= 1.2000E-07 tot_iter=    1109 conv_iter=     411 cpu clock= 4.71E+00
 tran: time= 1.3000E-07 tot_iter=    1222 conv_iter=     453 cpu clock= 4.71E+00
 sweep: tran tran36   end,  cpu clock=  4.72E+00 memory=    460 kb
 parameter: wmin            =    1.66E-07
 dcop: begin dcop,  cpu clock=  4.72E+00
 dcop: end dcop,  cpu clock=  4.73E+00 memory=    459 kb  tot_iter=     370
 output: c:\users\mahbod\desktop\part2\sample.mt0
 sweep: tran tran37   begin, stop_t=  1.30E-07 #sweeps=**** cpu clock=  4.73E+00
 tran: time= 1.3028E-08 tot_iter=     121 conv_iter=      46 cpu clock= 4.74E+00
 tran: time= 2.6084E-08 tot_iter=     231 conv_iter=      86 cpu clock= 4.75E+00
 tran: time= 3.9130E-08 tot_iter=     340 conv_iter=     127 cpu clock= 4.76E+00
 tran: time= 5.3139E-08 tot_iter=     558 conv_iter=     204 cpu clock= 4.78E+00
 tran: time= 6.6412E-08 tot_iter=     680 conv_iter=     249 cpu clock= 4.79E+00
 tran: time= 8.0000E-08 tot_iter=     760 conv_iter=     280 cpu clock= 4.79E+00
 tran: time= 9.1128E-08 tot_iter=     941 conv_iter=     346 cpu clock= 4.81E+00
 tran: time= 1.0797E-07 tot_iter=    1025 conv_iter=     379 cpu clock= 4.82E+00
 tran: time= 1.2000E-07 tot_iter=    1106 conv_iter=     410 cpu clock= 4.83E+00
 tran: time= 1.3000E-07 tot_iter=    1220 conv_iter=     452 cpu clock= 4.83E+00
 sweep: tran tran37   end,  cpu clock=  4.84E+00 memory=    460 kb
 parameter: wmin            =    1.67E-07
 dcop: begin dcop,  cpu clock=  4.84E+00
 dcop: end dcop,  cpu clock=  4.85E+00 memory=    459 kb  tot_iter=     380
 output: c:\users\mahbod\desktop\part2\sample.mt0
 sweep: tran tran38   begin, stop_t=  1.30E-07 #sweeps=**** cpu clock=  4.85E+00
 tran: time= 1.3356E-08 tot_iter=     121 conv_iter=      46 cpu clock= 4.86E+00
 tran: time= 2.9164E-08 tot_iter=     233 conv_iter=      87 cpu clock= 4.87E+00
 tran: time= 4.0000E-08 tot_iter=     345 conv_iter=     128 cpu clock= 4.88E+00
 tran: time= 5.3171E-08 tot_iter=     563 conv_iter=     205 cpu clock= 4.89E+00
 tran: time= 6.6517E-08 tot_iter=     685 conv_iter=     250 cpu clock= 4.91E+00
 tran: time= 8.0000E-08 tot_iter=     765 conv_iter=     281 cpu clock= 4.91E+00
 tran: time= 9.1127E-08 tot_iter=     946 conv_iter=     347 cpu clock= 4.93E+00
 tran: time= 1.0807E-07 tot_iter=    1030 conv_iter=     380 cpu clock= 4.94E+00
 tran: time= 1.2000E-07 tot_iter=    1111 conv_iter=     411 cpu clock= 4.95E+00
 tran: time= 1.3000E-07 tot_iter=    1225 conv_iter=     453 cpu clock= 4.96E+00
 sweep: tran tran38   end,  cpu clock=  4.96E+00 memory=    460 kb
 parameter: wmin            =    1.68E-07
 dcop: begin dcop,  cpu clock=  4.96E+00
 dcop: end dcop,  cpu clock=  4.97E+00 memory=    459 kb  tot_iter=     390
 output: c:\users\mahbod\desktop\part2\sample.mt0
 sweep: tran tran39   begin, stop_t=  1.30E-07 #sweeps=**** cpu clock=  4.97E+00
 tran: time= 1.3390E-08 tot_iter=     122 conv_iter=      46 cpu clock= 4.98E+00
 tran: time= 2.8729E-08 tot_iter=     234 conv_iter=      87 cpu clock= 4.99E+00
 tran: time= 4.0000E-08 tot_iter=     346 conv_iter=     128 cpu clock= 5.00E+00
 tran: time= 5.3204E-08 tot_iter=     564 conv_iter=     205 cpu clock= 5.01E+00
 tran: time= 6.6684E-08 tot_iter=     686 conv_iter=     250 cpu clock= 5.03E+00
 tran: time= 8.0000E-08 tot_iter=     766 conv_iter=     281 cpu clock= 5.03E+00
 tran: time= 9.1127E-08 tot_iter=     947 conv_iter=     347 cpu clock= 5.05E+00
 tran: time= 1.0818E-07 tot_iter=    1031 conv_iter=     380 cpu clock= 5.06E+00
 tran: time= 1.2000E-07 tot_iter=    1112 conv_iter=     411 cpu clock= 5.06E+00
 tran: time= 1.3000E-07 tot_iter=    1226 conv_iter=     453 cpu clock= 5.07E+00
 sweep: tran tran39   end,  cpu clock=  5.08E+00 memory=    460 kb
 parameter: wmin            =    1.69E-07
 dcop: begin dcop,  cpu clock=  5.08E+00
 dcop: end dcop,  cpu clock=  5.08E+00 memory=    459 kb  tot_iter=     400
 output: c:\users\mahbod\desktop\part2\sample.mt0
 sweep: tran tran40   begin, stop_t=  1.30E-07 #sweeps=**** cpu clock=  5.09E+00
 tran: time= 1.3160E-08 tot_iter=     122 conv_iter=      46 cpu clock= 5.10E+00
 tran: time= 2.7956E-08 tot_iter=     234 conv_iter=      87 cpu clock= 5.11E+00
 tran: time= 4.0000E-08 tot_iter=     346 conv_iter=     128 cpu clock= 5.12E+00
 tran: time= 5.3237E-08 tot_iter=     564 conv_iter=     205 cpu clock= 5.13E+00
 tran: time= 6.6747E-08 tot_iter=     678 conv_iter=     247 cpu clock= 5.14E+00
 tran: time= 8.0000E-08 tot_iter=     758 conv_iter=     278 cpu clock= 5.15E+00
 tran: time= 9.1127E-08 tot_iter=     939 conv_iter=     344 cpu clock= 5.17E+00
 tran: time= 1.0829E-07 tot_iter=    1023 conv_iter=     377 cpu clock= 5.17E+00
 tran: time= 1.2000E-07 tot_iter=    1104 conv_iter=     408 cpu clock= 5.18E+00
 tran: time= 1.3000E-07 tot_iter=    1216 conv_iter=     449 cpu clock= 5.19E+00
 sweep: tran tran40   end,  cpu clock=  5.20E+00 memory=    460 kb
 parameter: wmin            =    1.70E-07
 dcop: begin dcop,  cpu clock=  5.20E+00
 dcop: end dcop,  cpu clock=  5.20E+00 memory=    459 kb  tot_iter=     410
 output: c:\users\mahbod\desktop\part2\sample.mt0
 sweep: tran tran41   begin, stop_t=  1.30E-07 #sweeps=**** cpu clock=  5.21E+00
 tran: time= 1.6587E-08 tot_iter=     125 conv_iter=      47 cpu clock= 5.22E+00
 tran: time= 2.7479E-08 tot_iter=     236 conv_iter=      87 cpu clock= 5.23E+00
 tran: time= 4.0000E-08 tot_iter=     348 conv_iter=     128 cpu clock= 5.24E+00
 tran: time= 5.3270E-08 tot_iter=     567 conv_iter=     206 cpu clock= 5.25E+00
 tran: time= 6.5201E-08 tot_iter=     687 conv_iter=     250 cpu clock= 5.26E+00
 tran: time= 8.0000E-08 tot_iter=     767 conv_iter=     281 cpu clock= 5.27E+00
 tran: time= 9.1124E-08 tot_iter=     947 conv_iter=     347 cpu clock= 5.29E+00
 tran: time= 1.0841E-07 tot_iter=    1031 conv_iter=     380 cpu clock= 5.29E+00
 tran: time= 1.2000E-07 tot_iter=    1111 conv_iter=     411 cpu clock= 5.30E+00
 tran: time= 1.3000E-07 tot_iter=    1223 conv_iter=     452 cpu clock= 5.31E+00
 sweep: tran tran41   end,  cpu clock=  5.32E+00 memory=    460 kb
 parameter: wmin            =    1.71E-07
 dcop: begin dcop,  cpu clock=  5.32E+00
 dcop: end dcop,  cpu clock=  5.32E+00 memory=    459 kb  tot_iter=     420
 output: c:\users\mahbod\desktop\part2\sample.mt0
 sweep: tran tran42   begin, stop_t=  1.30E-07 #sweeps=**** cpu clock=  5.33E+00
 tran: time= 1.6294E-08 tot_iter=     122 conv_iter=      47 cpu clock= 5.34E+00
 tran: time= 2.7040E-08 tot_iter=     233 conv_iter=      87 cpu clock= 5.35E+00
 tran: time= 4.0000E-08 tot_iter=     345 conv_iter=     128 cpu clock= 5.36E+00
 tran: time= 5.3304E-08 tot_iter=     564 conv_iter=     206 cpu clock= 5.37E+00
 tran: time= 6.5316E-08 tot_iter=     682 conv_iter=     249 cpu clock= 5.38E+00
 tran: time= 8.0000E-08 tot_iter=     765 conv_iter=     282 cpu clock= 5.39E+00
 tran: time= 9.1122E-08 tot_iter=     945 conv_iter=     348 cpu clock= 5.40E+00
 tran: time= 1.0854E-07 tot_iter=    1029 conv_iter=     381 cpu clock= 5.41E+00
 tran: time= 1.2000E-07 tot_iter=    1109 conv_iter=     412 cpu clock= 5.42E+00
 tran: time= 1.3000E-07 tot_iter=    1220 conv_iter=     453 cpu clock= 5.43E+00
 sweep: tran tran42   end,  cpu clock=  5.43E+00 memory=    460 kb
 parameter: wmin            =    1.72E-07
 dcop: begin dcop,  cpu clock=  5.44E+00
 dcop: end dcop,  cpu clock=  5.44E+00 memory=    459 kb  tot_iter=     430
 output: c:\users\mahbod\desktop\part2\sample.mt0
 sweep: tran tran43   begin, stop_t=  1.30E-07 #sweeps=**** cpu clock=  5.44E+00
 tran: time= 1.6100E-08 tot_iter=     122 conv_iter=      47 cpu clock= 5.45E+00
 tran: time= 2.6530E-08 tot_iter=     233 conv_iter=      87 cpu clock= 5.46E+00
 tran: time= 4.0000E-08 tot_iter=     345 conv_iter=     128 cpu clock= 5.47E+00
 tran: time= 5.3338E-08 tot_iter=     564 conv_iter=     206 cpu clock= 5.49E+00
 tran: time= 6.5438E-08 tot_iter=     682 conv_iter=     249 cpu clock= 5.50E+00
 tran: time= 8.0000E-08 tot_iter=     764 conv_iter=     282 cpu clock= 5.51E+00
 tran: time= 9.1120E-08 tot_iter=     944 conv_iter=     348 cpu clock= 5.52E+00
 tran: time= 1.0867E-07 tot_iter=    1028 conv_iter=     381 cpu clock= 5.53E+00
 tran: time= 1.2000E-07 tot_iter=    1108 conv_iter=     412 cpu clock= 5.54E+00
 tran: time= 1.3000E-07 tot_iter=    1217 conv_iter=     452 cpu clock= 5.55E+00
 sweep: tran tran43   end,  cpu clock=  5.55E+00 memory=    460 kb
 parameter: wmin            =    1.73E-07
 dcop: begin dcop,  cpu clock=  5.55E+00
 dcop: end dcop,  cpu clock=  5.56E+00 memory=    459 kb  tot_iter=     440
 output: c:\users\mahbod\desktop\part2\sample.mt0
 sweep: tran tran44   begin, stop_t=  1.30E-07 #sweeps=**** cpu clock=  5.56E+00
 tran: time= 1.5999E-08 tot_iter=     122 conv_iter=      47 cpu clock= 5.57E+00
 tran: time= 2.6104E-08 tot_iter=     232 conv_iter=      87 cpu clock= 5.58E+00
 tran: time= 4.0000E-08 tot_iter=     346 conv_iter=     129 cpu clock= 5.59E+00
 tran: time= 5.3372E-08 tot_iter=     565 conv_iter=     207 cpu clock= 5.61E+00
 tran: time= 6.5562E-08 tot_iter=     683 conv_iter=     250 cpu clock= 5.62E+00
 tran: time= 8.0000E-08 tot_iter=     763 conv_iter=     281 cpu clock= 5.62E+00
 tran: time= 9.1111E-08 tot_iter=     943 conv_iter=     347 cpu clock= 5.64E+00
 tran: time= 1.0881E-07 tot_iter=    1027 conv_iter=     380 cpu clock= 5.65E+00
 tran: time= 1.2000E-07 tot_iter=    1107 conv_iter=     411 cpu clock= 5.66E+00
 tran: time= 1.3000E-07 tot_iter=    1216 conv_iter=     451 cpu clock= 5.67E+00
 sweep: tran tran44   end,  cpu clock=  5.67E+00 memory=    460 kb
 parameter: wmin            =    1.74E-07
 dcop: begin dcop,  cpu clock=  5.67E+00
 dcop: end dcop,  cpu clock=  5.68E+00 memory=    459 kb  tot_iter=     450
 output: c:\users\mahbod\desktop\part2\sample.mt0
 sweep: tran tran45   begin, stop_t=  1.30E-07 #sweeps=**** cpu clock=  5.68E+00
 tran: time= 1.5975E-08 tot_iter=     123 conv_iter=      47 cpu clock= 5.69E+00
 tran: time= 2.8335E-08 tot_iter=     235 conv_iter=      88 cpu clock= 5.70E+00
 tran: time= 4.0000E-08 tot_iter=     347 conv_iter=     129 cpu clock= 5.71E+00
 tran: time= 5.3386E-08 tot_iter=     566 conv_iter=     207 cpu clock= 5.72E+00
 tran: time= 6.5688E-08 tot_iter=     684 conv_iter=     250 cpu clock= 5.74E+00
 tran: time= 8.0000E-08 tot_iter=     764 conv_iter=     281 cpu clock= 5.74E+00
 tran: time= 9.1108E-08 tot_iter=     944 conv_iter=     347 cpu clock= 5.76E+00
 tran: time= 1.0896E-07 tot_iter=    1028 conv_iter=     380 cpu clock= 5.77E+00
 tran: time= 1.2000E-07 tot_iter=    1108 conv_iter=     411 cpu clock= 5.77E+00
 tran: time= 1.3000E-07 tot_iter=    1217 conv_iter=     451 cpu clock= 5.78E+00
 sweep: tran tran45   end,  cpu clock=  5.79E+00 memory=    460 kb
 parameter: wmin            =    1.75E-07
 dcop: begin dcop,  cpu clock=  5.79E+00
 dcop: end dcop,  cpu clock=  5.79E+00 memory=    459 kb  tot_iter=     460
 output: c:\users\mahbod\desktop\part2\sample.mt0
 sweep: tran tran46   begin, stop_t=  1.30E-07 #sweeps=**** cpu clock=  5.80E+00
 tran: time= 1.6030E-08 tot_iter=     123 conv_iter=      47 cpu clock= 5.81E+00
 tran: time= 2.7629E-08 tot_iter=     235 conv_iter=      88 cpu clock= 5.82E+00
 tran: time= 4.0000E-08 tot_iter=     347 conv_iter=     129 cpu clock= 5.83E+00
 tran: time= 5.3390E-08 tot_iter=     566 conv_iter=     207 cpu clock= 5.84E+00
 tran: time= 6.5871E-08 tot_iter=     683 conv_iter=     250 cpu clock= 5.85E+00
 tran: time= 8.0000E-08 tot_iter=     763 conv_iter=     281 cpu clock= 5.86E+00
 tran: time= 9.1107E-08 tot_iter=     943 conv_iter=     347 cpu clock= 5.88E+00
 tran: time= 1.0401E-07 tot_iter=    1025 conv_iter=     379 cpu clock= 5.88E+00
 tran: time= 1.2000E-07 tot_iter=    1107 conv_iter=     411 cpu clock= 5.89E+00
 tran: time= 1.3000E-07 tot_iter=    1216 conv_iter=     451 cpu clock= 5.90E+00
 sweep: tran tran46   end,  cpu clock=  5.90E+00 memory=    460 kb
 parameter: wmin            =    1.76E-07
 dcop: begin dcop,  cpu clock=  5.91E+00
 dcop: end dcop,  cpu clock=  5.91E+00 memory=    459 kb  tot_iter=     470
 output: c:\users\mahbod\desktop\part2\sample.mt0
 sweep: tran tran47   begin, stop_t=  1.30E-07 #sweeps=**** cpu clock=  5.92E+00
 tran: time= 1.3267E-08 tot_iter=     122 conv_iter=      46 cpu clock= 5.92E+00
 tran: time= 2.7560E-08 tot_iter=     235 conv_iter=      88 cpu clock= 5.94E+00
 tran: time= 4.0000E-08 tot_iter=     347 conv_iter=     129 cpu clock= 5.95E+00
 tran: time= 5.3397E-08 tot_iter=     565 conv_iter=     207 cpu clock= 5.96E+00
 tran: time= 6.5963E-08 tot_iter=     682 conv_iter=     250 cpu clock= 5.97E+00
 tran: time= 8.0000E-08 tot_iter=     762 conv_iter=     281 cpu clock= 5.98E+00
 tran: time= 9.1105E-08 tot_iter=     942 conv_iter=     347 cpu clock= 5.99E+00
 tran: time= 1.0407E-07 tot_iter=    1024 conv_iter=     379 cpu clock= 6.00E+00
 tran: time= 1.2000E-07 tot_iter=    1101 conv_iter=     409 cpu clock= 6.01E+00
 tran: time= 1.3000E-07 tot_iter=    1210 conv_iter=     449 cpu clock= 6.02E+00
 sweep: tran tran47   end,  cpu clock=  6.02E+00 memory=    460 kb
 parameter: wmin            =    1.77E-07
 dcop: begin dcop,  cpu clock=  6.03E+00
 dcop: end dcop,  cpu clock=  6.03E+00 memory=    459 kb  tot_iter=     480
 output: c:\users\mahbod\desktop\part2\sample.mt0
 sweep: tran tran48   begin, stop_t=  1.30E-07 #sweeps=**** cpu clock=  6.04E+00
 tran: time= 1.3984E-08 tot_iter=     122 conv_iter=      46 cpu clock= 6.04E+00
 tran: time= 2.7495E-08 tot_iter=     234 conv_iter=      88 cpu clock= 6.06E+00
 tran: time= 3.9031E-08 tot_iter=     344 conv_iter=     128 cpu clock= 6.07E+00
 tran: time= 5.3407E-08 tot_iter=     564 conv_iter=     207 cpu clock= 6.08E+00
 tran: time= 6.6037E-08 tot_iter=     681 conv_iter=     250 cpu clock= 6.09E+00
 tran: time= 8.0000E-08 tot_iter=     761 conv_iter=     281 cpu clock= 6.10E+00
 tran: time= 9.1104E-08 tot_iter=     941 conv_iter=     347 cpu clock= 6.12E+00
 tran: time= 1.0414E-07 tot_iter=    1023 conv_iter=     379 cpu clock= 6.13E+00
 tran: time= 1.2000E-07 tot_iter=    1103 conv_iter=     410 cpu clock= 6.13E+00
 tran: time= 1.3000E-07 tot_iter=    1212 conv_iter=     450 cpu clock= 6.14E+00
 sweep: tran tran48   end,  cpu clock=  6.15E+00 memory=    460 kb
 parameter: wmin            =    1.78E-07
 dcop: begin dcop,  cpu clock=  6.15E+00
 dcop: end dcop,  cpu clock=  6.16E+00 memory=    459 kb  tot_iter=     490
 output: c:\users\mahbod\desktop\part2\sample.mt0
 sweep: tran tran49   begin, stop_t=  1.30E-07 #sweeps=**** cpu clock=  6.16E+00
 tran: time= 1.4798E-08 tot_iter=     121 conv_iter=      46 cpu clock= 6.17E+00
 tran: time= 2.7429E-08 tot_iter=     233 conv_iter=      88 cpu clock= 6.18E+00
 tran: time= 3.9137E-08 tot_iter=     343 conv_iter=     128 cpu clock= 6.19E+00
 tran: time= 5.3418E-08 tot_iter=     562 conv_iter=     207 cpu clock= 6.21E+00
 tran: time= 6.6112E-08 tot_iter=     679 conv_iter=     250 cpu clock= 6.21E+00
 tran: time= 8.0000E-08 tot_iter=     759 conv_iter=     281 cpu clock= 6.22E+00
 tran: time= 9.1104E-08 tot_iter=     939 conv_iter=     347 cpu clock= 6.24E+00
 tran: time= 1.0421E-07 tot_iter=    1021 conv_iter=     379 cpu clock= 6.25E+00
 tran: time= 1.2000E-07 tot_iter=    1101 conv_iter=     410 cpu clock= 6.25E+00
 tran: time= 1.3000E-07 tot_iter=    1210 conv_iter=     450 cpu clock= 6.26E+00
 sweep: tran tran49   end,  cpu clock=  6.27E+00 memory=    460 kb
 parameter: wmin            =    1.79E-07
 dcop: begin dcop,  cpu clock=  6.27E+00
 dcop: end dcop,  cpu clock=  6.28E+00 memory=    459 kb  tot_iter=     500
 output: c:\users\mahbod\desktop\part2\sample.mt0
 sweep: tran tran50   begin, stop_t=  1.30E-07 #sweeps=**** cpu clock=  6.28E+00
 tran: time= 1.4784E-08 tot_iter=     121 conv_iter=      46 cpu clock= 6.29E+00
 tran: time= 2.7344E-08 tot_iter=     233 conv_iter=      88 cpu clock= 6.30E+00
 tran: time= 3.9268E-08 tot_iter=     343 conv_iter=     128 cpu clock= 6.31E+00
 tran: time= 5.3431E-08 tot_iter=     556 conv_iter=     204 cpu clock= 6.33E+00
 tran: time= 6.6188E-08 tot_iter=     673 conv_iter=     247 cpu clock= 6.33E+00
 tran: time= 8.0000E-08 tot_iter=     753 conv_iter=     278 cpu clock= 6.34E+00
 tran: time= 9.1104E-08 tot_iter=     933 conv_iter=     344 cpu clock= 6.36E+00
 tran: time= 1.0428E-07 tot_iter=    1015 conv_iter=     376 cpu clock= 6.37E+00
 tran: time= 1.2000E-07 tot_iter=    1095 conv_iter=     407 cpu clock= 6.37E+00
 tran: time= 1.3000E-07 tot_iter=    1205 conv_iter=     447 cpu clock= 6.38E+00
 sweep: tran tran50   end,  cpu clock=  6.39E+00 memory=    460 kb
 parameter: wmin            =    1.80E-07
 dcop: begin dcop,  cpu clock=  6.39E+00
 dcop: end dcop,  cpu clock=  6.39E+00 memory=    459 kb  tot_iter=     510
 output: c:\users\mahbod\desktop\part2\sample.mt0
 sweep: tran tran51   begin, stop_t=  1.30E-07 #sweeps=**** cpu clock=  6.40E+00
 tran: time= 1.4787E-08 tot_iter=     121 conv_iter=      46 cpu clock= 6.41E+00
 tran: time= 2.7852E-08 tot_iter=     233 conv_iter=      88 cpu clock= 6.42E+00
 tran: time= 3.9039E-08 tot_iter=     343 conv_iter=     128 cpu clock= 6.43E+00
 tran: time= 5.3446E-08 tot_iter=     562 conv_iter=     207 cpu clock= 6.45E+00
 tran: time= 6.6326E-08 tot_iter=     678 conv_iter=     250 cpu clock= 6.45E+00
 tran: time= 8.0000E-08 tot_iter=     758 conv_iter=     281 cpu clock= 6.46E+00
 tran: time= 9.1104E-08 tot_iter=     938 conv_iter=     347 cpu clock= 6.48E+00
 tran: time= 1.0435E-07 tot_iter=    1020 conv_iter=     379 cpu clock= 6.49E+00
 tran: time= 1.2000E-07 tot_iter=    1100 conv_iter=     410 cpu clock= 6.49E+00
 tran: time= 1.3000E-07 tot_iter=    1212 conv_iter=     451 cpu clock= 6.50E+00
 sweep: tran tran51   end,  cpu clock=  6.51E+00 memory=    460 kb
 parameter: wmin            =    1.81E-07
 dcop: begin dcop,  cpu clock=  6.51E+00
 dcop: end dcop,  cpu clock=  6.51E+00 memory=    459 kb  tot_iter=     520
 output: c:\users\mahbod\desktop\part2\sample.mt0
 sweep: tran tran52   begin, stop_t=  1.30E-07 #sweeps=**** cpu clock=  6.52E+00
 tran: time= 1.4812E-08 tot_iter=     121 conv_iter=      46 cpu clock= 6.53E+00
 tran: time= 2.6210E-08 tot_iter=     231 conv_iter=      87 cpu clock= 6.54E+00
 tran: time= 4.0000E-08 tot_iter=     336 conv_iter=     126 cpu clock= 6.55E+00
 tran: time= 5.3463E-08 tot_iter=     553 conv_iter=     204 cpu clock= 6.56E+00
 tran: time= 6.6403E-08 tot_iter=     669 conv_iter=     247 cpu clock= 6.57E+00
 tran: time= 8.0000E-08 tot_iter=     749 conv_iter=     278 cpu clock= 6.58E+00
 tran: time= 9.1104E-08 tot_iter=     929 conv_iter=     344 cpu clock= 6.60E+00
 tran: time= 1.0437E-07 tot_iter=    1011 conv_iter=     376 cpu clock= 6.61E+00
 tran: time= 1.2000E-07 tot_iter=    1091 conv_iter=     407 cpu clock= 6.61E+00
 tran: time= 1.3000E-07 tot_iter=    1203 conv_iter=     448 cpu clock= 6.62E+00
 sweep: tran tran52   end,  cpu clock=  6.63E+00 memory=    460 kb
 parameter: wmin            =    1.82E-07
 dcop: begin dcop,  cpu clock=  6.63E+00
 dcop: end dcop,  cpu clock=  6.63E+00 memory=    459 kb  tot_iter=     530
 output: c:\users\mahbod\desktop\part2\sample.mt0
 sweep: tran tran53   begin, stop_t=  1.30E-07 #sweeps=**** cpu clock=  6.64E+00
 tran: time= 1.4865E-08 tot_iter=     121 conv_iter=      46 cpu clock= 6.65E+00
 tran: time= 2.7012E-08 tot_iter=     231 conv_iter=      87 cpu clock= 6.66E+00
 tran: time= 4.0000E-08 tot_iter=     344 conv_iter=     128 cpu clock= 6.67E+00
 tran: time= 5.3481E-08 tot_iter=     561 conv_iter=     206 cpu clock= 6.68E+00
 tran: time= 6.6480E-08 tot_iter=     677 conv_iter=     249 cpu clock= 6.70E+00
 tran: time= 8.0000E-08 tot_iter=     757 conv_iter=     280 cpu clock= 6.70E+00
 tran: time= 9.1105E-08 tot_iter=     937 conv_iter=     346 cpu clock= 6.72E+00
 tran: time= 1.0440E-07 tot_iter=    1019 conv_iter=     378 cpu clock= 6.73E+00
 tran: time= 1.2000E-07 tot_iter=    1099 conv_iter=     409 cpu clock= 6.74E+00
 tran: time= 1.3000E-07 tot_iter=    1211 conv_iter=     450 cpu clock= 6.75E+00
 sweep: tran tran53   end,  cpu clock=  6.75E+00 memory=    460 kb
 parameter: wmin            =    1.83E-07
 dcop: begin dcop,  cpu clock=  6.75E+00
 dcop: end dcop,  cpu clock=  6.75E+00 memory=    459 kb  tot_iter=     540
 output: c:\users\mahbod\desktop\part2\sample.mt0
 sweep: tran tran54   begin, stop_t=  1.30E-07 #sweeps=**** cpu clock=  6.76E+00
 tran: time= 1.4832E-08 tot_iter=     121 conv_iter=      46 cpu clock= 6.77E+00
 tran: time= 2.7735E-08 tot_iter=     233 conv_iter=      87 cpu clock= 6.78E+00
 tran: time= 4.0000E-08 tot_iter=     346 conv_iter=     128 cpu clock= 6.79E+00
 tran: time= 5.3500E-08 tot_iter=     561 conv_iter=     205 cpu clock= 6.80E+00
 tran: time= 6.6557E-08 tot_iter=     677 conv_iter=     248 cpu clock= 6.82E+00
 tran: time= 8.0000E-08 tot_iter=     757 conv_iter=     279 cpu clock= 6.82E+00
 tran: time= 9.1107E-08 tot_iter=     937 conv_iter=     345 cpu clock= 6.84E+00
 tran: time= 1.0443E-07 tot_iter=    1019 conv_iter=     377 cpu clock= 6.85E+00
 tran: time= 1.2000E-07 tot_iter=    1099 conv_iter=     408 cpu clock= 6.86E+00
 tran: time= 1.3000E-07 tot_iter=    1211 conv_iter=     449 cpu clock= 6.87E+00
 sweep: tran tran54   end,  cpu clock=  6.87E+00 memory=    460 kb
 parameter: wmin            =    1.84E-07
 dcop: begin dcop,  cpu clock=  6.88E+00
 dcop: end dcop,  cpu clock=  6.88E+00 memory=    459 kb  tot_iter=     550
 output: c:\users\mahbod\desktop\part2\sample.mt0
 sweep: tran tran55   begin, stop_t=  1.30E-07 #sweeps=**** cpu clock=  6.89E+00
 tran: time= 1.4779E-08 tot_iter=     121 conv_iter=      46 cpu clock= 6.89E+00
 tran: time= 2.8533E-08 tot_iter=     233 conv_iter=      87 cpu clock= 6.91E+00
 tran: time= 4.0000E-08 tot_iter=     345 conv_iter=     128 cpu clock= 6.92E+00
 tran: time= 5.3521E-08 tot_iter=     559 conv_iter=     205 cpu clock= 6.93E+00
 tran: time= 6.6615E-08 tot_iter=     673 conv_iter=     248 cpu clock= 6.94E+00
 tran: time= 8.0000E-08 tot_iter=     753 conv_iter=     279 cpu clock= 6.95E+00
 tran: time= 9.1108E-08 tot_iter=     933 conv_iter=     345 cpu clock= 6.96E+00
 tran: time= 1.0445E-07 tot_iter=    1015 conv_iter=     377 cpu clock= 6.97E+00
 tran: time= 1.2000E-07 tot_iter=    1095 conv_iter=     408 cpu clock= 6.98E+00
 tran: time= 1.3000E-07 tot_iter=    1207 conv_iter=     449 cpu clock= 6.99E+00
 sweep: tran tran55   end,  cpu clock=  6.99E+00 memory=    460 kb
 parameter: wmin            =    1.85E-07
 dcop: begin dcop,  cpu clock=  7.00E+00
 dcop: end dcop,  cpu clock=  7.00E+00 memory=    459 kb  tot_iter=     560
 output: c:\users\mahbod\desktop\part2\sample.mt0
 sweep: tran tran56   begin, stop_t=  1.30E-07 #sweeps=**** cpu clock=  7.00E+00
 tran: time= 1.4736E-08 tot_iter=     121 conv_iter=      46 cpu clock= 7.01E+00
 tran: time= 2.9409E-08 tot_iter=     232 conv_iter=      87 cpu clock= 7.03E+00
 tran: time= 4.0000E-08 tot_iter=     337 conv_iter=     127 cpu clock= 7.04E+00
 tran: time= 5.3543E-08 tot_iter=     551 conv_iter=     204 cpu clock= 7.05E+00
 tran: time= 6.6683E-08 tot_iter=     665 conv_iter=     247 cpu clock= 7.06E+00
 tran: time= 8.0000E-08 tot_iter=     745 conv_iter=     278 cpu clock= 7.07E+00
 tran: time= 9.1110E-08 tot_iter=     925 conv_iter=     344 cpu clock= 7.08E+00
 tran: time= 1.0448E-07 tot_iter=    1007 conv_iter=     376 cpu clock= 7.09E+00
 tran: time= 1.2000E-07 tot_iter=    1087 conv_iter=     407 cpu clock= 7.10E+00
 tran: time= 1.3000E-07 tot_iter=    1201 conv_iter=     449 cpu clock= 7.11E+00
 sweep: tran tran56   end,  cpu clock=  7.11E+00 memory=    460 kb
 parameter: wmin            =    1.86E-07
 dcop: begin dcop,  cpu clock=  7.12E+00
 dcop: end dcop,  cpu clock=  7.12E+00 memory=    459 kb  tot_iter=     570
 output: c:\users\mahbod\desktop\part2\sample.mt0
 sweep: tran tran57   begin, stop_t=  1.30E-07 #sweeps=**** cpu clock=  7.13E+00
 tran: time= 1.4702E-08 tot_iter=     121 conv_iter=      46 cpu clock= 7.13E+00
 tran: time= 2.6584E-08 tot_iter=     230 conv_iter=      86 cpu clock= 7.14E+00
 tran: time= 4.0000E-08 tot_iter=     343 conv_iter=     127 cpu clock= 7.15E+00
 tran: time= 5.3567E-08 tot_iter=     557 conv_iter=     204 cpu clock= 7.17E+00
 tran: time= 6.6749E-08 tot_iter=     671 conv_iter=     247 cpu clock= 7.18E+00
 tran: time= 8.0000E-08 tot_iter=     751 conv_iter=     278 cpu clock= 7.19E+00
 tran: time= 9.1113E-08 tot_iter=     931 conv_iter=     344 cpu clock= 7.20E+00
 tran: time= 1.0450E-07 tot_iter=    1013 conv_iter=     376 cpu clock= 7.21E+00
 tran: time= 1.2000E-07 tot_iter=    1093 conv_iter=     407 cpu clock= 7.22E+00
 tran: time= 1.3000E-07 tot_iter=    1207 conv_iter=     449 cpu clock= 7.23E+00
 sweep: tran tran57   end,  cpu clock=  7.23E+00 memory=    460 kb
 parameter: wmin            =    1.87E-07
 dcop: begin dcop,  cpu clock=  7.24E+00
 dcop: end dcop,  cpu clock=  7.24E+00 memory=    459 kb  tot_iter=     580
 output: c:\users\mahbod\desktop\part2\sample.mt0
 sweep: tran tran58   begin, stop_t=  1.30E-07 #sweeps=**** cpu clock=  7.25E+00
 tran: time= 1.4664E-08 tot_iter=     121 conv_iter=      46 cpu clock= 7.25E+00
 tran: time= 2.7492E-08 tot_iter=     229 conv_iter=      86 cpu clock= 7.26E+00
 tran: time= 4.0000E-08 tot_iter=     342 conv_iter=     127 cpu clock= 7.28E+00
 tran: time= 5.2265E-08 tot_iter=     551 conv_iter=     203 cpu clock= 7.29E+00
 tran: time= 6.6812E-08 tot_iter=     667 conv_iter=     247 cpu clock= 7.30E+00
 tran: time= 8.0000E-08 tot_iter=     747 conv_iter=     278 cpu clock= 7.31E+00
 tran: time= 9.1119E-08 tot_iter=     927 conv_iter=     344 cpu clock= 7.33E+00
 tran: time= 1.0453E-07 tot_iter=    1009 conv_iter=     376 cpu clock= 7.33E+00
 tran: time= 1.1701E-07 tot_iter=    1087 conv_iter=     406 cpu clock= 7.34E+00
 tran: time= 1.3000E-07 tot_iter=    1203 conv_iter=     449 cpu clock= 7.35E+00
 sweep: tran tran58   end,  cpu clock=  7.36E+00 memory=    460 kb
 parameter: wmin            =    1.88E-07
 dcop: begin dcop,  cpu clock=  7.36E+00
 dcop: end dcop,  cpu clock=  7.36E+00 memory=    459 kb  tot_iter=     590
 output: c:\users\mahbod\desktop\part2\sample.mt0
 sweep: tran tran59   begin, stop_t=  1.30E-07 #sweeps=**** cpu clock=  7.37E+00
 tran: time= 1.4626E-08 tot_iter=     121 conv_iter=      46 cpu clock= 7.38E+00
 tran: time= 2.8744E-08 tot_iter=     229 conv_iter=      86 cpu clock= 7.39E+00
 tran: time= 4.0000E-08 tot_iter=     342 conv_iter=     127 cpu clock= 7.40E+00
 tran: time= 5.3599E-08 tot_iter=     557 conv_iter=     204 cpu clock= 7.41E+00
 tran: time= 6.6876E-08 tot_iter=     671 conv_iter=     247 cpu clock= 7.42E+00
 tran: time= 8.0000E-08 tot_iter=     749 conv_iter=     277 cpu clock= 7.43E+00
 tran: time= 9.1126E-08 tot_iter=     929 conv_iter=     343 cpu clock= 7.45E+00
 tran: time= 1.0455E-07 tot_iter=    1011 conv_iter=     375 cpu clock= 7.46E+00
 tran: time= 1.1704E-07 tot_iter=    1089 conv_iter=     405 cpu clock= 7.46E+00
 tran: time= 1.3000E-07 tot_iter=    1205 conv_iter=     448 cpu clock= 7.47E+00
 sweep: tran tran59   end,  cpu clock=  7.48E+00 memory=    460 kb
 parameter: wmin            =    1.89E-07
 dcop: begin dcop,  cpu clock=  7.48E+00
 dcop: end dcop,  cpu clock=  7.49E+00 memory=    459 kb  tot_iter=     600
 output: c:\users\mahbod\desktop\part2\sample.mt0
 sweep: tran tran60   begin, stop_t=  1.30E-07 #sweeps=**** cpu clock=  7.49E+00
 tran: time= 1.4603E-08 tot_iter=     122 conv_iter=      46 cpu clock= 7.50E+00
 tran: time= 3.0000E-08 tot_iter=     231 conv_iter=      86 cpu clock= 7.51E+00
 tran: time= 4.0000E-08 tot_iter=     342 conv_iter=     126 cpu clock= 7.52E+00
 tran: time= 5.3628E-08 tot_iter=     556 conv_iter=     203 cpu clock= 7.54E+00
 tran: time= 6.6930E-08 tot_iter=     670 conv_iter=     246 cpu clock= 7.55E+00
 tran: time= 8.0000E-08 tot_iter=     746 conv_iter=     277 cpu clock= 7.55E+00
 tran: time= 9.1133E-08 tot_iter=     926 conv_iter=     343 cpu clock= 7.57E+00
 tran: time= 1.0458E-07 tot_iter=    1008 conv_iter=     375 cpu clock= 7.58E+00
 tran: time= 1.1708E-07 tot_iter=    1086 conv_iter=     405 cpu clock= 7.59E+00
 tran: time= 1.3000E-07 tot_iter=    1202 conv_iter=     448 cpu clock= 7.60E+00
 sweep: tran tran60   end,  cpu clock=  7.60E+00 memory=    460 kb
 parameter: wmin            =    1.90E-07
 dcop: begin dcop,  cpu clock=  7.61E+00
 dcop: end dcop,  cpu clock=  7.61E+00 memory=    459 kb  tot_iter=     610
 output: c:\users\mahbod\desktop\part2\sample.mt0
 sweep: tran tran61   begin, stop_t=  1.30E-07 #sweeps=**** cpu clock=  7.61E+00
 tran: time= 1.4588E-08 tot_iter=     122 conv_iter=      46 cpu clock= 7.62E+00
 tran: time= 2.7229E-08 tot_iter=     229 conv_iter=      85 cpu clock= 7.63E+00
 tran: time= 4.0000E-08 tot_iter=     341 conv_iter=     126 cpu clock= 7.64E+00
 tran: time= 5.3655E-08 tot_iter=     555 conv_iter=     203 cpu clock= 7.66E+00
 tran: time= 6.5029E-08 tot_iter=     667 conv_iter=     245 cpu clock= 7.67E+00
 tran: time= 8.0000E-08 tot_iter=     746 conv_iter=     277 cpu clock= 7.68E+00
 tran: time= 9.1140E-08 tot_iter=     926 conv_iter=     343 cpu clock= 7.69E+00
 tran: time= 1.0460E-07 tot_iter=    1008 conv_iter=     375 cpu clock= 7.70E+00
 tran: time= 1.1711E-07 tot_iter=    1086 conv_iter=     405 cpu clock= 7.71E+00
 tran: time= 1.3000E-07 tot_iter=    1203 conv_iter=     448 cpu clock= 7.72E+00
 sweep: tran tran61   end,  cpu clock=  7.72E+00 memory=    460 kb
 parameter: wmin            =    1.91E-07
 dcop: begin dcop,  cpu clock=  7.73E+00
 dcop: end dcop,  cpu clock=  7.73E+00 memory=    459 kb  tot_iter=     620
 output: c:\users\mahbod\desktop\part2\sample.mt0
 sweep: tran tran62   begin, stop_t=  1.30E-07 #sweeps=**** cpu clock=  7.73E+00
 tran: time= 1.4533E-08 tot_iter=     120 conv_iter=      46 cpu clock= 7.74E+00
 tran: time= 2.9343E-08 tot_iter=     227 conv_iter=      85 cpu clock= 7.75E+00
 tran: time= 3.9450E-08 tot_iter=     328 conv_iter=     122 cpu clock= 7.76E+00
 tran: time= 5.3683E-08 tot_iter=     546 conv_iter=     201 cpu clock= 7.78E+00
 tran: time= 6.5065E-08 tot_iter=     658 conv_iter=     243 cpu clock= 7.79E+00
 tran: time= 8.0000E-08 tot_iter=     741 conv_iter=     276 cpu clock= 7.80E+00
 tran: time= 9.1147E-08 tot_iter=     921 conv_iter=     342 cpu clock= 7.81E+00
 tran: time= 1.0463E-07 tot_iter=    1003 conv_iter=     374 cpu clock= 7.82E+00
 tran: time= 1.1715E-07 tot_iter=    1081 conv_iter=     404 cpu clock= 7.83E+00
 tran: time= 1.3000E-07 tot_iter=    1199 conv_iter=     447 cpu clock= 7.84E+00
 sweep: tran tran62   end,  cpu clock=  7.84E+00 memory=    460 kb
 parameter: wmin            =    1.92E-07
 dcop: begin dcop,  cpu clock=  7.85E+00
 dcop: end dcop,  cpu clock=  7.85E+00 memory=    459 kb  tot_iter=     630
 output: c:\users\mahbod\desktop\part2\sample.mt0
 sweep: tran tran63   begin, stop_t=  1.30E-07 #sweeps=**** cpu clock=  7.85E+00
 tran: time= 1.4525E-08 tot_iter=     120 conv_iter=      46 cpu clock= 7.86E+00
 tran: time= 2.6760E-08 tot_iter=     225 conv_iter=      84 cpu clock= 7.88E+00
 tran: time= 4.0000E-08 tot_iter=     336 conv_iter=     125 cpu clock= 7.88E+00
 tran: time= 5.2686E-08 tot_iter=     545 conv_iter=     200 cpu clock= 7.90E+00
 tran: time= 6.5101E-08 tot_iter=     659 conv_iter=     243 cpu clock= 7.91E+00
 tran: time= 7.9488E-08 tot_iter=     740 conv_iter=     276 cpu clock= 7.92E+00
 tran: time= 9.1155E-08 tot_iter=     917 conv_iter=     343 cpu clock= 7.93E+00
 tran: time= 1.0466E-07 tot_iter=     999 conv_iter=     375 cpu clock= 7.94E+00
 tran: time= 1.1719E-07 tot_iter=    1077 conv_iter=     405 cpu clock= 7.95E+00
 tran: time= 1.3000E-07 tot_iter=    1194 conv_iter=     448 cpu clock= 7.96E+00
 sweep: tran tran63   end,  cpu clock=  7.96E+00 memory=    460 kb
 parameter: wmin            =    1.93E-07
 dcop: begin dcop,  cpu clock=  7.97E+00
 dcop: end dcop,  cpu clock=  7.97E+00 memory=    459 kb  tot_iter=     640
 output: c:\users\mahbod\desktop\part2\sample.mt0
 sweep: tran tran64   begin, stop_t=  1.30E-07 #sweeps=**** cpu clock=  7.98E+00
 tran: time= 1.4519E-08 tot_iter=     120 conv_iter=      46 cpu clock= 7.99E+00
 tran: time= 3.0000E-08 tot_iter=     227 conv_iter=      85 cpu clock= 8.00E+00
 tran: time= 4.0000E-08 tot_iter=     336 conv_iter=     125 cpu clock= 8.01E+00
 tran: time= 5.3741E-08 tot_iter=     552 conv_iter=     203 cpu clock= 8.02E+00
 tran: time= 6.5135E-08 tot_iter=     664 conv_iter=     245 cpu clock= 8.03E+00
 tran: time= 8.0000E-08 tot_iter=     746 conv_iter=     278 cpu clock= 8.04E+00
 tran: time= 9.1163E-08 tot_iter=     926 conv_iter=     344 cpu clock= 8.05E+00
 tran: time= 1.0468E-07 tot_iter=    1008 conv_iter=     376 cpu clock= 8.06E+00
 tran: time= 1.1722E-07 tot_iter=    1086 conv_iter=     406 cpu clock= 8.07E+00
 tran: time= 1.3000E-07 tot_iter=    1204 conv_iter=     449 cpu clock= 8.08E+00
 sweep: tran tran64   end,  cpu clock=  8.09E+00 memory=    460 kb
 parameter: wmin            =    1.94E-07
 dcop: begin dcop,  cpu clock=  8.09E+00
 dcop: end dcop,  cpu clock=  8.09E+00 memory=    459 kb  tot_iter=     650
 output: c:\users\mahbod\desktop\part2\sample.mt0
 sweep: tran tran65   begin, stop_t=  1.30E-07 #sweeps=**** cpu clock=  8.10E+00
 tran: time= 1.4515E-08 tot_iter=     120 conv_iter=      46 cpu clock= 8.11E+00
 tran: time= 2.8545E-08 tot_iter=     226 conv_iter=      85 cpu clock= 8.12E+00
 tran: time= 4.0000E-08 tot_iter=     336 conv_iter=     126 cpu clock= 8.13E+00
 tran: time= 5.3773E-08 tot_iter=     551 conv_iter=     204 cpu clock= 8.14E+00
 tran: time= 6.5163E-08 tot_iter=     663 conv_iter=     246 cpu clock= 8.15E+00
 tran: time= 8.0000E-08 tot_iter=     745 conv_iter=     279 cpu clock= 8.16E+00
 tran: time= 9.1171E-08 tot_iter=     925 conv_iter=     345 cpu clock= 8.18E+00
 tran: time= 1.0471E-07 tot_iter=    1007 conv_iter=     377 cpu clock= 8.19E+00
 tran: time= 1.1726E-07 tot_iter=    1085 conv_iter=     407 cpu clock= 8.19E+00
 tran: time= 1.3000E-07 tot_iter=    1205 conv_iter=     451 cpu clock= 8.21E+00
 sweep: tran tran65   end,  cpu clock=  8.21E+00 memory=    460 kb
 parameter: wmin            =    1.95E-07
 dcop: begin dcop,  cpu clock=  8.21E+00
 dcop: end dcop,  cpu clock=  8.22E+00 memory=    459 kb  tot_iter=     660
 output: c:\users\mahbod\desktop\part2\sample.mt0
 sweep: tran tran66   begin, stop_t=  1.30E-07 #sweeps=**** cpu clock=  8.22E+00
 tran: time= 1.4513E-08 tot_iter=     120 conv_iter=      46 cpu clock= 8.23E+00
 tran: time= 2.8152E-08 tot_iter=     226 conv_iter=      85 cpu clock= 8.24E+00
 tran: time= 4.0000E-08 tot_iter=     336 conv_iter=     126 cpu clock= 8.25E+00
 tran: time= 5.2008E-08 tot_iter=     549 conv_iter=     203 cpu clock= 8.27E+00
 tran: time= 6.5185E-08 tot_iter=     664 conv_iter=     246 cpu clock= 8.28E+00
 tran: time= 8.0000E-08 tot_iter=     746 conv_iter=     279 cpu clock= 8.29E+00
 tran: time= 9.1179E-08 tot_iter=     926 conv_iter=     345 cpu clock= 8.30E+00
 tran: time= 1.0474E-07 tot_iter=    1008 conv_iter=     377 cpu clock= 8.31E+00
 tran: time= 1.1730E-07 tot_iter=    1086 conv_iter=     407 cpu clock= 8.32E+00
 tran: time= 1.3000E-07 tot_iter=    1206 conv_iter=     451 cpu clock= 8.33E+00
 sweep: tran tran66   end,  cpu clock=  8.33E+00 memory=    460 kb
 parameter: wmin            =    1.96E-07
 dcop: begin dcop,  cpu clock=  8.34E+00
 dcop: end dcop,  cpu clock=  8.34E+00 memory=    459 kb  tot_iter=     670
 output: c:\users\mahbod\desktop\part2\sample.mt0
 sweep: tran tran67   begin, stop_t=  1.30E-07 #sweeps=**** cpu clock=  8.34E+00
 tran: time= 1.4512E-08 tot_iter=     120 conv_iter=      46 cpu clock= 8.35E+00
 tran: time= 2.7614E-08 tot_iter=     225 conv_iter=      85 cpu clock= 8.36E+00
 tran: time= 4.0000E-08 tot_iter=     335 conv_iter=     126 cpu clock= 8.37E+00
 tran: time= 5.2018E-08 tot_iter=     547 conv_iter=     203 cpu clock= 8.39E+00
 tran: time= 6.5195E-08 tot_iter=     663 conv_iter=     246 cpu clock= 8.40E+00
 tran: time= 8.0000E-08 tot_iter=     745 conv_iter=     279 cpu clock= 8.41E+00
 tran: time= 9.1187E-08 tot_iter=     925 conv_iter=     345 cpu clock= 8.42E+00
 tran: time= 1.0477E-07 tot_iter=    1007 conv_iter=     377 cpu clock= 8.43E+00
 tran: time= 1.1734E-07 tot_iter=    1085 conv_iter=     407 cpu clock= 8.44E+00
 tran: time= 1.3000E-07 tot_iter=    1204 conv_iter=     451 cpu clock= 8.45E+00
 sweep: tran tran67   end,  cpu clock=  8.45E+00 memory=    460 kb
 parameter: wmin            =    1.97E-07
 dcop: begin dcop,  cpu clock=  8.46E+00
 dcop: end dcop,  cpu clock=  8.46E+00 memory=    459 kb  tot_iter=     680
 output: c:\users\mahbod\desktop\part2\sample.mt0
 sweep: tran tran68   begin, stop_t=  1.30E-07 #sweeps=**** cpu clock=  8.47E+00
 tran: time= 1.4514E-08 tot_iter=     120 conv_iter=      46 cpu clock= 8.48E+00
 tran: time= 2.7424E-08 tot_iter=     226 conv_iter=      85 cpu clock= 8.49E+00
 tran: time= 4.0000E-08 tot_iter=     335 conv_iter=     126 cpu clock= 8.50E+00
[...]
 dcop: begin dcop,  cpu clock=  1.30E+01
 dcop: end dcop,  cpu clock=  1.30E+01 memory=    459 kb  tot_iter=    1050
 output: c:\users\mahbod\desktop\part2\sample.mt0
 sweep: tran tran105  begin, stop_t=  1.30E-07 #sweeps=**** cpu clock=  1.30E+01
 tran: time= 1.3989E-08 tot_iter=     120 conv_iter=      46 cpu clock= 1.30E+01
 tran: time= 2.8057E-08 tot_iter=     230 conv_iter=      86 cpu clock= 1.30E+01
 tran: time= 4.0000E-08 tot_iter=     339 conv_iter=     127 cpu clock= 1.30E+01
 tran: time= 5.2745E-08 tot_iter=     541 conv_iter=     202 cpu clock= 1.30E+01
 tran: time= 6.7498E-08 tot_iter=     649 conv_iter=     241 cpu clock= 1.30E+01
 tran: time= 8.0000E-08 tot_iter=     727 conv_iter=     271 cpu clock= 1.30E+01
 tran: time= 9.1637E-08 tot_iter=     907 conv_iter=     337 cpu clock= 1.30E+01
 tran: time= 1.0421E-07 tot_iter=     991 conv_iter=     369 cpu clock= 1.31E+01
 tran: time= 1.1768E-07 tot_iter=    1072 conv_iter=     400 cpu clock= 1.31E+01
 tran: time= 1.3000E-07 tot_iter=    1193 conv_iter=     444 cpu clock= 1.31E+01
 sweep: tran tran105  end,  cpu clock=  1.31E+01 memory=    460 kb
 parameter: wmin            =    2.35E-07
 dcop: begin dcop,  cpu clock=  1.31E+01
 dcop: end dcop,  cpu clock=  1.31E+01 memory=    459 kb  tot_iter=    1060
 output: c:\users\mahbod\desktop\part2\sample.mt0
 sweep: tran tran106  begin, stop_t=  1.30E-07 #sweeps=**** cpu clock=  1.31E+01
 tran: time= 1.3999E-08 tot_iter=     120 conv_iter=      46 cpu clock= 1.31E+01
 tran: time= 2.8022E-08 tot_iter=     230 conv_iter=      86 cpu clock= 1.31E+01
 tran: time= 4.0000E-08 tot_iter=     339 conv_iter=     127 cpu clock= 1.31E+01
 tran: time= 5.2770E-08 tot_iter=     541 conv_iter=     202 cpu clock= 1.31E+01
 tran: time= 6.6604E-08 tot_iter=     649 conv_iter=     241 cpu clock= 1.31E+01
 tran: time= 8.0000E-08 tot_iter=     727 conv_iter=     271 cpu clock= 1.31E+01
 tran: time= 9.1648E-08 tot_iter=     906 conv_iter=     337 cpu clock= 1.32E+01
 tran: time= 1.0419E-07 tot_iter=     990 conv_iter=     369 cpu clock= 1.32E+01
 tran: time= 1.1769E-07 tot_iter=    1071 conv_iter=     400 cpu clock= 1.32E+01
 tran: time= 1.3000E-07 tot_iter=    1192 conv_iter=     444 cpu clock= 1.32E+01
 sweep: tran tran106  end,  cpu clock=  1.32E+01 memory=    460 kb
 parameter: wmin            =    2.36E-07
 dcop: begin dcop,  cpu clock=  1.32E+01
 dcop: end dcop,  cpu clock=  1.32E+01 memory=    459 kb  tot_iter=    1070
 output: c:\users\mahbod\desktop\part2\sample.mt0
 sweep: tran tran107  begin, stop_t=  1.30E-07 #sweeps=**** cpu clock=  1.32E+01
 tran: time= 1.4004E-08 tot_iter=     120 conv_iter=      46 cpu clock= 1.32E+01
 tran: time= 2.8046E-08 tot_iter=     230 conv_iter=      86 cpu clock= 1.32E+01
 tran: time= 4.0000E-08 tot_iter=     339 conv_iter=     127 cpu clock= 1.32E+01
 tran: time= 5.2795E-08 tot_iter=     541 conv_iter=     202 cpu clock= 1.33E+01
 tran: time= 6.5973E-08 tot_iter=     649 conv_iter=     241 cpu clock= 1.33E+01
 tran: time= 8.0000E-08 tot_iter=     727 conv_iter=     271 cpu clock= 1.33E+01
 tran: time= 9.1657E-08 tot_iter=     906 conv_iter=     337 cpu clock= 1.33E+01
 tran: time= 1.0418E-07 tot_iter=     990 conv_iter=     369 cpu clock= 1.33E+01
 tran: time= 1.1770E-07 tot_iter=    1071 conv_iter=     400 cpu clock= 1.33E+01
 tran: time= 1.3000E-07 tot_iter=    1192 conv_iter=     444 cpu clock= 1.33E+01
 sweep: tran tran107  end,  cpu clock=  1.33E+01 memory=    460 kb
 parameter: wmin            =    2.37E-07
 dcop: begin dcop,  cpu clock=  1.33E+01
 dcop: end dcop,  cpu clock=  1.33E+01 memory=    459 kb  tot_iter=    1080
 output: c:\users\mahbod\desktop\part2\sample.mt0
 sweep: tran tran108  begin, stop_t=  1.30E-07 #sweeps=**** cpu clock=  1.33E+01
 tran: time= 1.4007E-08 tot_iter=     120 conv_iter=      46 cpu clock= 1.33E+01
 tran: time= 2.8068E-08 tot_iter=     230 conv_iter=      86 cpu clock= 1.33E+01
 tran: time= 4.0000E-08 tot_iter=     339 conv_iter=     127 cpu clock= 1.34E+01
 tran: time= 5.2821E-08 tot_iter=     541 conv_iter=     202 cpu clock= 1.34E+01
 tran: time= 6.5501E-08 tot_iter=     649 conv_iter=     241 cpu clock= 1.34E+01
 tran: time= 8.0000E-08 tot_iter=     728 conv_iter=     273 cpu clock= 1.34E+01
 tran: time= 9.1666E-08 tot_iter=     907 conv_iter=     339 cpu clock= 1.34E+01
 tran: time= 1.0417E-07 tot_iter=     991 conv_iter=     371 cpu clock= 1.34E+01
 tran: time= 1.1771E-07 tot_iter=    1072 conv_iter=     402 cpu clock= 1.34E+01
 tran: time= 1.3000E-07 tot_iter=    1192 conv_iter=     446 cpu clock= 1.34E+01
 sweep: tran tran108  end,  cpu clock=  1.34E+01 memory=    460 kb
 parameter: wmin            =    2.38E-07
 dcop: begin dcop,  cpu clock=  1.34E+01
 dcop: end dcop,  cpu clock=  1.34E+01 memory=    459 kb  tot_iter=    1090
 output: c:\users\mahbod\desktop\part2\sample.mt0
 sweep: tran tran109  begin, stop_t=  1.30E-07 #sweeps=**** cpu clock=  1.34E+01
 tran: time= 1.4005E-08 tot_iter=     120 conv_iter=      46 cpu clock= 1.35E+01
 tran: time= 2.8089E-08 tot_iter=     230 conv_iter=      86 cpu clock= 1.35E+01
 tran: time= 4.0000E-08 tot_iter=     339 conv_iter=     127 cpu clock= 1.35E+01
 tran: time= 5.2848E-08 tot_iter=     541 conv_iter=     202 cpu clock= 1.35E+01
 tran: time= 6.5135E-08 tot_iter=     649 conv_iter=     241 cpu clock= 1.35E+01
 tran: time= 8.0000E-08 tot_iter=     729 conv_iter=     272 cpu clock= 1.35E+01
 tran: time= 9.1676E-08 tot_iter=     908 conv_iter=     338 cpu clock= 1.35E+01
 tran: time= 1.0416E-07 tot_iter=     992 conv_iter=     370 cpu clock= 1.35E+01
 tran: time= 1.1772E-07 tot_iter=    1073 conv_iter=     401 cpu clock= 1.35E+01
 tran: time= 1.3000E-07 tot_iter=    1193 conv_iter=     445 cpu clock= 1.35E+01
 sweep: tran tran109  end,  cpu clock=  1.36E+01 memory=    460 kb
 parameter: wmin            =    2.39E-07
 dcop: begin dcop,  cpu clock=  1.36E+01
 dcop: end dcop,  cpu clock=  1.36E+01 memory=    459 kb  tot_iter=    1100
 output: c:\users\mahbod\desktop\part2\sample.mt0
 sweep: tran tran110  begin, stop_t=  1.30E-07 #sweeps=**** cpu clock=  1.36E+01
 tran: time= 1.4001E-08 tot_iter=     120 conv_iter=      46 cpu clock= 1.36E+01
 tran: time= 2.8110E-08 tot_iter=     230 conv_iter=      86 cpu clock= 1.36E+01
 tran: time= 4.0000E-08 tot_iter=     339 conv_iter=     127 cpu clock= 1.36E+01
 tran: time= 5.2605E-08 tot_iter=     541 conv_iter=     203 cpu clock= 1.36E+01
 tran: time= 6.8243E-08 tot_iter=     651 conv_iter=     243 cpu clock= 1.36E+01
 tran: time= 8.0000E-08 tot_iter=     729 conv_iter=     273 cpu clock= 1.36E+01
 tran: time= 9.1686E-08 tot_iter=     908 conv_iter=     339 cpu clock= 1.36E+01
 tran: time= 1.0414E-07 tot_iter=     992 conv_iter=     371 cpu clock= 1.36E+01
 tran: time= 1.1773E-07 tot_iter=    1073 conv_iter=     402 cpu clock= 1.37E+01
 tran: time= 1.3000E-07 tot_iter=    1193 conv_iter=     446 cpu clock= 1.37E+01
 sweep: tran tran110  end,  cpu clock=  1.37E+01 memory=    460 kb
 parameter: wmin            =    2.40E-07
 dcop: begin dcop,  cpu clock=  1.37E+01
 dcop: end dcop,  cpu clock=  1.37E+01 memory=    459 kb  tot_iter=    1110
 output: c:\users\mahbod\desktop\part2\sample.mt0
 sweep: tran tran111  begin, stop_t=  1.30E-07 #sweeps=**** cpu clock=  1.37E+01
 tran: time= 1.3995E-08 tot_iter=     120 conv_iter=      46 cpu clock= 1.37E+01
 tran: time= 2.8129E-08 tot_iter=     230 conv_iter=      86 cpu clock= 1.37E+01
 tran: time= 4.0000E-08 tot_iter=     339 conv_iter=     127 cpu clock= 1.37E+01
 tran: time= 5.2903E-08 tot_iter=     539 conv_iter=     201 cpu clock= 1.37E+01
 tran: time= 6.7778E-08 tot_iter=     649 conv_iter=     241 cpu clock= 1.37E+01
 tran: time= 8.0000E-08 tot_iter=     727 conv_iter=     271 cpu clock= 1.37E+01
 tran: time= 9.1697E-08 tot_iter=     906 conv_iter=     337 cpu clock= 1.38E+01
 tran: time= 1.0413E-07 tot_iter=     990 conv_iter=     369 cpu clock= 1.38E+01
 tran: time= 1.1775E-07 tot_iter=    1071 conv_iter=     400 cpu clock= 1.38E+01
 tran: time= 1.3000E-07 tot_iter=    1189 conv_iter=     443 cpu clock= 1.38E+01
 sweep: tran tran111  end,  cpu clock=  1.38E+01 memory=    460 kb
 parameter: wmin            =    2.41E-07
 dcop: begin dcop,  cpu clock=  1.38E+01
 dcop: end dcop,  cpu clock=  1.38E+01 memory=    459 kb  tot_iter=    1120
 output: c:\users\mahbod\desktop\part2\sample.mt0
 sweep: tran tran112  begin, stop_t=  1.30E-07 #sweeps=**** cpu clock=  1.38E+01
 tran: time= 1.3988E-08 tot_iter=     120 conv_iter=      46 cpu clock= 1.38E+01
 tran: time= 2.8146E-08 tot_iter=     230 conv_iter=      86 cpu clock= 1.38E+01
 tran: time= 4.0000E-08 tot_iter=     339 conv_iter=     127 cpu clock= 1.38E+01
 tran: time= 5.2932E-08 tot_iter=     539 conv_iter=     201 cpu clock= 1.38E+01
 tran: time= 6.7413E-08 tot_iter=     650 conv_iter=     241 cpu clock= 1.39E+01
 tran: time= 8.0000E-08 tot_iter=     728 conv_iter=     271 cpu clock= 1.39E+01
 tran: time= 9.1708E-08 tot_iter=     907 conv_iter=     337 cpu clock= 1.39E+01
 tran: time= 1.0458E-07 tot_iter=     987 conv_iter=     368 cpu clock= 1.39E+01
 tran: time= 1.1776E-07 tot_iter=    1068 conv_iter=     399 cpu clock= 1.39E+01
 tran: time= 1.3000E-07 tot_iter=    1186 conv_iter=     442 cpu clock= 1.39E+01
 sweep: tran tran112  end,  cpu clock=  1.39E+01 memory=    460 kb
 parameter: wmin            =    2.42E-07
 dcop: begin dcop,  cpu clock=  1.39E+01
 dcop: end dcop,  cpu clock=  1.39E+01 memory=    459 kb  tot_iter=    1130
 output: c:\users\mahbod\desktop\part2\sample.mt0
 sweep: tran tran113  begin, stop_t=  1.30E-07 #sweeps=**** cpu clock=  1.39E+01
 tran: time= 1.3980E-08 tot_iter=     120 conv_iter=      46 cpu clock= 1.39E+01
 tran: time= 2.8162E-08 tot_iter=     230 conv_iter=      86 cpu clock= 1.39E+01
 tran: time= 4.0000E-08 tot_iter=     339 conv_iter=     127 cpu clock= 1.39E+01
 tran: time= 5.2962E-08 tot_iter=     540 conv_iter=     201 cpu clock= 1.40E+01
 tran: time= 6.7097E-08 tot_iter=     651 conv_iter=     241 cpu clock= 1.40E+01
 tran: time= 8.0000E-08 tot_iter=     729 conv_iter=     271 cpu clock= 1.40E+01
 tran: time= 9.1719E-08 tot_iter=     908 conv_iter=     337 cpu clock= 1.40E+01
 tran: time= 1.0458E-07 tot_iter=     987 conv_iter=     368 cpu clock= 1.40E+01
 tran: time= 1.1777E-07 tot_iter=    1068 conv_iter=     399 cpu clock= 1.40E+01
 tran: time= 1.3000E-07 tot_iter=    1186 conv_iter=     442 cpu clock= 1.40E+01
 sweep: tran tran113  end,  cpu clock=  1.40E+01 memory=    460 kb
 parameter: wmin            =    2.43E-07
 dcop: begin dcop,  cpu clock=  1.40E+01
 dcop: end dcop,  cpu clock=  1.40E+01 memory=    459 kb  tot_iter=    1140
 output: c:\users\mahbod\desktop\part2\sample.mt0
 sweep: tran tran114  begin, stop_t=  1.30E-07 #sweeps=**** cpu clock=  1.40E+01
 tran: time= 1.3987E-08 tot_iter=     119 conv_iter=      46 cpu clock= 1.41E+01
 tran: time= 2.8177E-08 tot_iter=     229 conv_iter=      86 cpu clock= 1.41E+01
 tran: time= 4.0000E-08 tot_iter=     338 conv_iter=     127 cpu clock= 1.41E+01
 tran: time= 5.2992E-08 tot_iter=     539 conv_iter=     201 cpu clock= 1.41E+01
 tran: time= 6.6835E-08 tot_iter=     650 conv_iter=     241 cpu clock= 1.41E+01
 tran: time= 8.0000E-08 tot_iter=     728 conv_iter=     271 cpu clock= 1.41E+01
 tran: time= 9.1731E-08 tot_iter=     907 conv_iter=     337 cpu clock= 1.41E+01
 tran: time= 1.0557E-07 tot_iter=     988 conv_iter=     370 cpu clock= 1.41E+01
 tran: time= 1.1778E-07 tot_iter=    1067 conv_iter=     400 cpu clock= 1.41E+01
 tran: time= 1.3000E-07 tot_iter=    1185 conv_iter=     443 cpu clock= 1.41E+01
 sweep: tran tran114  end,  cpu clock=  1.42E+01 memory=    460 kb
 parameter: wmin            =    2.44E-07
 dcop: begin dcop,  cpu clock=  1.42E+01
 dcop: end dcop,  cpu clock=  1.42E+01 memory=    459 kb  tot_iter=    1150
 output: c:\users\mahbod\desktop\part2\sample.mt0
 sweep: tran tran115  begin, stop_t=  1.30E-07 #sweeps=**** cpu clock=  1.42E+01
 tran: time= 1.4004E-08 tot_iter=     119 conv_iter=      46 cpu clock= 1.42E+01
 tran: time= 2.8190E-08 tot_iter=     229 conv_iter=      86 cpu clock= 1.42E+01
 tran: time= 4.0000E-08 tot_iter=     338 conv_iter=     127 cpu clock= 1.42E+01
 tran: time= 5.3024E-08 tot_iter=     539 conv_iter=     201 cpu clock= 1.42E+01
 tran: time= 6.6539E-08 tot_iter=     650 conv_iter=     241 cpu clock= 1.42E+01
 tran: time= 8.0000E-08 tot_iter=     728 conv_iter=     271 cpu clock= 1.42E+01
 tran: time= 9.1745E-08 tot_iter=     908 conv_iter=     337 cpu clock= 1.42E+01
 tran: time= 1.0450E-07 tot_iter=     989 conv_iter=     370 cpu clock= 1.42E+01
 tran: time= 1.1779E-07 tot_iter=    1070 conv_iter=     401 cpu clock= 1.43E+01
 tran: time= 1.3000E-07 tot_iter=    1188 conv_iter=     444 cpu clock= 1.43E+01
 sweep: tran tran115  end,  cpu clock=  1.43E+01 memory=    460 kb
 parameter: wmin            =    2.45E-07
 dcop: begin dcop,  cpu clock=  1.43E+01
 dcop: end dcop,  cpu clock=  1.43E+01 memory=    459 kb  tot_iter=    1160
 output: c:\users\mahbod\desktop\part2\sample.mt0
 sweep: tran tran116  begin, stop_t=  1.30E-07 #sweeps=**** cpu clock=  1.43E+01
 tran: time= 1.4036E-08 tot_iter=     118 conv_iter=      46 cpu clock= 1.43E+01
 tran: time= 2.8202E-08 tot_iter=     228 conv_iter=      86 cpu clock= 1.43E+01
 tran: time= 4.0000E-08 tot_iter=     337 conv_iter=     127 cpu clock= 1.43E+01
 tran: time= 5.3057E-08 tot_iter=     539 conv_iter=     201 cpu clock= 1.43E+01
 tran: time= 6.6281E-08 tot_iter=     650 conv_iter=     241 cpu clock= 1.43E+01
 tran: time= 8.0000E-08 tot_iter=     728 conv_iter=     271 cpu clock= 1.43E+01
 tran: time= 9.1758E-08 tot_iter=     908 conv_iter=     337 cpu clock= 1.44E+01
 tran: time= 1.0449E-07 tot_iter=     990 conv_iter=     370 cpu clock= 1.44E+01
 tran: time= 1.1780E-07 tot_iter=    1071 conv_iter=     401 cpu clock= 1.44E+01
 tran: time= 1.3000E-07 tot_iter=    1189 conv_iter=     444 cpu clock= 1.44E+01
 sweep: tran tran116  end,  cpu clock=  1.44E+01 memory=    460 kb
 parameter: wmin            =    2.46E-07
 dcop: begin dcop,  cpu clock=  1.44E+01
 dcop: end dcop,  cpu clock=  1.44E+01 memory=    459 kb  tot_iter=    1170
 output: c:\users\mahbod\desktop\part2\sample.mt0
 sweep: tran tran117  begin, stop_t=  1.30E-07 #sweeps=**** cpu clock=  1.44E+01
 tran: time= 1.4077E-08 tot_iter=     119 conv_iter=      46 cpu clock= 1.44E+01
 tran: time= 2.8211E-08 tot_iter=     229 conv_iter=      86 cpu clock= 1.44E+01
 tran: time= 4.0000E-08 tot_iter=     338 conv_iter=     127 cpu clock= 1.44E+01
 tran: time= 5.3092E-08 tot_iter=     540 conv_iter=     201 cpu clock= 1.45E+01
 tran: time= 6.6056E-08 tot_iter=     651 conv_iter=     241 cpu clock= 1.45E+01
 tran: time= 8.0000E-08 tot_iter=     731 conv_iter=     273 cpu clock= 1.45E+01
 tran: time= 9.1772E-08 tot_iter=     911 conv_iter=     339 cpu clock= 1.45E+01
 tran: time= 1.0407E-07 tot_iter=     993 conv_iter=     370 cpu clock= 1.45E+01
 tran: time= 1.1781E-07 tot_iter=    1074 conv_iter=     401 cpu clock= 1.45E+01
 tran: time= 1.3000E-07 tot_iter=    1192 conv_iter=     444 cpu clock= 1.45E+01
 sweep: tran tran117  end,  cpu clock=  1.45E+01 memory=    460 kb
 parameter: wmin            =    2.47E-07
 dcop: begin dcop,  cpu clock=  1.45E+01
 dcop: end dcop,  cpu clock=  1.45E+01 memory=    459 kb  tot_iter=    1180
 output: c:\users\mahbod\desktop\part2\sample.mt0
 sweep: tran tran118  begin, stop_t=  1.30E-07 #sweeps=**** cpu clock=  1.45E+01
 tran: time= 1.4135E-08 tot_iter=     119 conv_iter=      46 cpu clock= 1.45E+01
 tran: time= 2.8219E-08 tot_iter=     229 conv_iter=      86 cpu clock= 1.45E+01
 tran: time= 4.0000E-08 tot_iter=     338 conv_iter=     127 cpu clock= 1.46E+01
 tran: time= 5.3128E-08 tot_iter=     540 conv_iter=     201 cpu clock= 1.46E+01
 tran: time= 6.5848E-08 tot_iter=     651 conv_iter=     241 cpu clock= 1.46E+01
 tran: time= 8.0000E-08 tot_iter=     731 conv_iter=     272 cpu clock= 1.46E+01
 tran: time= 9.1786E-08 tot_iter=     911 conv_iter=     338 cpu clock= 1.46E+01
 tran: time= 1.0829E-07 tot_iter=     994 conv_iter=     370 cpu clock= 1.46E+01
 tran: time= 1.1771E-07 tot_iter=    1072 conv_iter=     400 cpu clock= 1.46E+01
 tran: time= 1.3000E-07 tot_iter=    1190 conv_iter=     443 cpu clock= 1.46E+01
 sweep: tran tran118  end,  cpu clock=  1.46E+01 memory=    460 kb
 parameter: wmin            =    2.48E-07
 dcop: begin dcop,  cpu clock=  1.46E+01
 dcop: end dcop,  cpu clock=  1.46E+01 memory=    459 kb  tot_iter=    1190
 output: c:\users\mahbod\desktop\part2\sample.mt0
 sweep: tran tran119  begin, stop_t=  1.30E-07 #sweeps=**** cpu clock=  1.46E+01
 tran: time= 1.4220E-08 tot_iter=     119 conv_iter=      46 cpu clock= 1.47E+01
 tran: time= 2.8229E-08 tot_iter=     229 conv_iter=      86 cpu clock= 1.47E+01
 tran: time= 4.0000E-08 tot_iter=     338 conv_iter=     127 cpu clock= 1.47E+01
 tran: time= 5.3166E-08 tot_iter=     539 conv_iter=     201 cpu clock= 1.47E+01
 tran: time= 6.5667E-08 tot_iter=     650 conv_iter=     241 cpu clock= 1.47E+01
 tran: time= 8.0000E-08 tot_iter=     730 conv_iter=     272 cpu clock= 1.47E+01
 tran: time= 9.1801E-08 tot_iter=     910 conv_iter=     338 cpu clock= 1.47E+01
 tran: time= 1.0827E-07 tot_iter=     993 conv_iter=     370 cpu clock= 1.47E+01
 tran: time= 1.1772E-07 tot_iter=    1071 conv_iter=     400 cpu clock= 1.47E+01
 tran: time= 1.3000E-07 tot_iter=    1189 conv_iter=     443 cpu clock= 1.48E+01
 sweep: tran tran119  end,  cpu clock=  1.48E+01 memory=    460 kb
 parameter: wmin            =    2.49E-07
 dcop: begin dcop,  cpu clock=  1.48E+01
 dcop: end dcop,  cpu clock=  1.48E+01 memory=    459 kb  tot_iter=    1200
 output: c:\users\mahbod\desktop\part2\sample.mt0
 sweep: tran tran120  begin, stop_t=  1.30E-07 #sweeps=**** cpu clock=  1.48E+01
 tran: time= 1.4310E-08 tot_iter=     119 conv_iter=      46 cpu clock= 1.48E+01
 tran: time= 2.8233E-08 tot_iter=     228 conv_iter=      86 cpu clock= 1.48E+01
 tran: time= 4.0000E-08 tot_iter=     337 conv_iter=     127 cpu clock= 1.48E+01
 tran: time= 5.3205E-08 tot_iter=     539 conv_iter=     201 cpu clock= 1.48E+01
 tran: time= 6.5502E-08 tot_iter=     649 conv_iter=     241 cpu clock= 1.48E+01
 tran: time= 8.0000E-08 tot_iter=     729 conv_iter=     272 cpu clock= 1.48E+01
 tran: time= 9.1817E-08 tot_iter=     909 conv_iter=     338 cpu clock= 1.48E+01
 tran: time= 1.0824E-07 tot_iter=     992 conv_iter=     370 cpu clock= 1.49E+01
 tran: time= 1.1772E-07 tot_iter=    1070 conv_iter=     400 cpu clock= 1.49E+01
 tran: time= 1.3000E-07 tot_iter=    1188 conv_iter=     443 cpu clock= 1.49E+01
 sweep: tran tran120  end,  cpu clock=  1.49E+01 memory=    460 kb
 parameter: wmin            =    2.50E-07
 dcop: begin dcop,  cpu clock=  1.49E+01
 dcop: end dcop,  cpu clock=  1.49E+01 memory=    459 kb  tot_iter=    1210
 output: c:\users\mahbod\desktop\part2\sample.mt0
 sweep: tran tran121  begin, stop_t=  1.30E-07 #sweeps=**** cpu clock=  1.49E+01
 tran: time= 1.4343E-08 tot_iter=     118 conv_iter=      46 cpu clock= 1.49E+01
 tran: time= 2.8246E-08 tot_iter=     227 conv_iter=      86 cpu clock= 1.49E+01
 tran: time= 4.0000E-08 tot_iter=     336 conv_iter=     127 cpu clock= 1.49E+01
 tran: time= 5.3246E-08 tot_iter=     538 conv_iter=     201 cpu clock= 1.49E+01
 tran: time= 6.5375E-08 tot_iter=     648 conv_iter=     241 cpu clock= 1.49E+01
 tran: time= 8.0000E-08 tot_iter=     728 conv_iter=     272 cpu clock= 1.49E+01
 tran: time= 9.1005E-08 tot_iter=     906 conv_iter=     337 cpu clock= 1.50E+01
 tran: time= 1.0822E-07 tot_iter=     991 conv_iter=     370 cpu clock= 1.50E+01
 tran: time= 1.1772E-07 tot_iter=    1069 conv_iter=     400 cpu clock= 1.50E+01
 tran: time= 1.3000E-07 tot_iter=    1187 conv_iter=     443 cpu clock= 1.50E+01
 sweep: tran tran121  end,  cpu clock=  1.50E+01 memory=    460 kb
 sweep: parameter       parameter       1 end
>info:         ***** hspice job concluded
 Init: hspice initialization file: C:\synopsys\Hspice_A-2008.03\hspice.ini
 lic: Release hspice token(s)
