$DATA1 SOURCE='HSPICE' VERSION='A-2008.03 32-BIT'
.TITLE 'title'
 w                average_power    tda_f_xor1       tda_r_xor2        
                  tda_r_xor3       tda_f_xor4       tda_xor1          
                  tda_xor2         tda_xor          tda_r_xnor1       
                  tda_f_xnor2      tda_f_xnor3      tda_r_xnor4       
                  tda_xnor1        tda_xnor2        tda_xnor          
                  tdb_r_xor1       tdb_r_xor2       tdb_f_xor3        
                  tdb_f_xor4       tdb_xor1         tdb_xor2          
                  tdb_xor          tdb_f_xnor1      tdb_f_xnor2       
                  tdb_r_xnor3      tdb_r_xnor4      tdb_xnor1         
                  tdb_xnor2        tdb_xnor         tda               
                  tdb              td               pdp               
                  temper           alter#            
  1.30000e-07      8.12920e-06      5.19091e-11      7.59435e-11      
                   7.69394e-11      4.42090e-11      7.59435e-11      
                   7.69394e-11      7.69394e-11      1.79576e-11      
                   2.91326e-11      3.04450e-11      1.34185e-10      
                   2.91326e-11      1.34185e-10      1.34185e-10      
                   7.61806e-11      7.63112e-11      5.18671e-11      
                   4.38133e-11      7.63112e-11      5.18671e-11      
                   7.63112e-11      2.97062e-11      2.93200e-11      
                   1.76117e-11      1.34309e-10      2.97062e-11      
                   1.34309e-10      1.34309e-10      1.34185e-10      
                   1.34309e-10      1.34309e-10      1.09182e-15      
                    27.000000         1.000000       
  1.31000e-07      8.14352e-06      5.15923e-11      7.64268e-11      
                   7.65551e-11      4.39415e-11      7.64268e-11      
                   7.65551e-11      7.65551e-11      1.78486e-11      
                   2.98032e-11      3.03139e-11      1.33339e-10      
                   2.98032e-11      1.33339e-10      1.33339e-10      
                   7.57950e-11      7.59569e-11      5.15598e-11      
                   4.33359e-11      7.59569e-11      5.15598e-11      
                   7.59569e-11      2.95868e-11      2.92014e-11      
                   1.75092e-11      1.33234e-10      2.95868e-11      
                   1.33234e-10      1.33234e-10      1.33339e-10      
                   1.33234e-10      1.33339e-10      1.08585e-15      
                    27.000000         1.000000       
  1.32000e-07      8.12579e-06      5.12795e-11      7.60500e-11      
                   7.61764e-11      4.36758e-11      7.60500e-11      
                   7.61764e-11      7.61764e-11      1.77404e-11      
                   2.96856e-11      3.01845e-11      1.32507e-10      
                   2.96856e-11      1.32507e-10      1.32507e-10      
                   7.54167e-11      7.56074e-11      5.12568e-11      
                   4.32038e-11      7.56074e-11      5.12568e-11      
                   7.56074e-11      2.94692e-11      2.90847e-11      
                   1.74077e-11      1.32667e-10      2.94692e-11      
                   1.32667e-10      1.32667e-10      1.32507e-10      
                   1.32667e-10      1.32667e-10      1.07803e-15      
                    27.000000         1.000000       
  1.33000e-07      8.12579e-06      5.09706e-11      7.56794e-11      
                   7.58033e-11      4.34118e-11      7.56794e-11      
                   7.58033e-11      7.58033e-11      1.76328e-11      
                   2.95698e-11      3.00570e-11      1.31687e-10      
                   2.95698e-11      1.31687e-10      1.31687e-10      
                   7.50450e-11      7.52626e-11      5.09580e-11      
                   4.28984e-11      7.52626e-11      5.09580e-11      
                   7.52626e-11      2.93534e-11      2.89698e-11      
                   1.73073e-11      1.31868e-10      2.93534e-11      
                   1.31868e-10      1.31868e-10      1.31687e-10      
                   1.31868e-10      1.31868e-10      1.07153e-15      
                    27.000000         1.000000       
  1.34000e-07      8.12488e-06      5.06654e-11      7.53148e-11      
                   7.54357e-11      4.31495e-11      7.53148e-11      
                   7.54357e-11      7.54357e-11      1.75259e-11      
                   2.94559e-11      2.99311e-11      1.30881e-10      
                   2.94559e-11      1.30881e-10      1.30881e-10      
                   7.46800e-11      7.49223e-11      5.06630e-11      
                   4.25938e-11      7.49223e-11      5.06630e-11      
                   7.49223e-11      2.92392e-11      2.88566e-11      
                   1.72078e-11      1.31084e-10      2.92392e-11      
                   1.31084e-10      1.31084e-10      1.30881e-10      
                   1.31084e-10      1.31084e-10      1.06504e-15      
                    27.000000         1.000000       
  1.35000e-07      8.12283e-06      5.03638e-11      7.49560e-11      
                   7.50736e-11      4.28889e-11      7.49560e-11      
                   7.50736e-11      7.50736e-11      1.74196e-11      
                   2.93437e-11      2.98070e-11      1.30087e-10      
                   2.93437e-11      1.30087e-10      1.30087e-10      
                   7.43214e-11      7.45863e-11      5.03701e-11      
                   4.22901e-11      7.45863e-11      5.03701e-11      
                   7.45863e-11      2.91268e-11      2.87449e-11      
                   1.71094e-11      1.30313e-10      2.91268e-11      
                   1.30313e-10      1.30313e-10      1.30087e-10      
                   1.30313e-10      1.30313e-10      1.05851e-15      
                    27.000000         1.000000       
  1.36000e-07      8.12161e-06      5.00277e-11      7.46008e-11      
                   7.47169e-11      4.26299e-11      7.46008e-11      
                   7.47169e-11      7.47169e-11      1.72307e-11      
                   2.92332e-11      2.96845e-11      1.29306e-10      
                   2.92332e-11      1.29306e-10      1.29306e-10      
                   7.39691e-11      7.42548e-11      5.00787e-11      
                   4.19872e-11      7.42548e-11      5.00787e-11      
                   7.42548e-11      2.90160e-11      2.86350e-11      
                   1.70120e-11      1.29556e-10      2.90160e-11      
                   1.29556e-10      1.29556e-10      1.29306e-10      
                   1.29556e-10      1.29556e-10      1.05220e-15      
                    27.000000         1.000000       
  1.37000e-07      8.11959e-06      4.97841e-11      7.42516e-11      
                   7.43657e-11      4.23725e-11      7.42516e-11      
                   7.43657e-11      7.43657e-11      1.72090e-11      
                   2.91244e-11      2.95636e-11      1.28537e-10      
                   2.91244e-11      1.28537e-10      1.28537e-10      
                   7.36229e-11      7.39265e-11      4.97910e-11      
                   4.16851e-11      7.39265e-11      4.97910e-11      
                   7.39265e-11      2.89068e-11      2.85267e-11      
                   1.69155e-11      1.28811e-10      2.89068e-11      
                   1.28811e-10      1.28811e-10      1.28537e-10      
                   1.28811e-10      1.28811e-10      1.04589e-15      
                    27.000000         1.000000       
  1.38000e-07      8.11856e-06      4.95031e-11      7.39082e-11      
                   7.40197e-11      4.21166e-11      7.39082e-11      
                   7.40197e-11      7.40197e-11      1.71045e-11      
                   2.90173e-11      2.94443e-11      1.27779e-10      
                   2.90173e-11      1.27779e-10      1.27779e-10      
                   7.32826e-11      7.32743e-11      4.95068e-11      
                   4.14522e-11      7.32826e-11      4.95068e-11      
                   7.32826e-11      2.87992e-11      2.80573e-11      
                   1.68199e-11      1.28078e-10      2.87992e-11      
                   1.28078e-10      1.28078e-10      1.27779e-10      
                   1.28078e-10      1.28078e-10      1.03981e-15      
                    27.000000         1.000000       
  1.39000e-07      8.10843e-06      4.92267e-11      7.34010e-11      
                   7.36791e-11      4.18622e-11      7.34010e-11      
                   7.36791e-11      7.36791e-11      1.70007e-11      
                   2.88070e-11      2.93266e-11      1.27033e-10      
                   2.88070e-11      1.27033e-10      1.27033e-10      
                   7.29480e-11      7.32778e-11      4.93379e-11      
                   4.12659e-11      7.32778e-11      4.93379e-11      
                   7.32778e-11      2.86932e-11      2.83147e-11      
                   1.66079e-11      1.27355e-10      2.86932e-11      
                   1.27355e-10      1.27355e-10      1.27033e-10      
                   1.27355e-10      1.27355e-10      1.03265e-15      
                    27.000000         1.000000       
  1.40000e-07      8.11258e-06      4.89546e-11      7.32379e-11      
                   7.33436e-11      4.16093e-11      7.32379e-11      
                   7.33436e-11      7.33436e-11      1.68975e-11      
                   2.88079e-11      2.92103e-11      1.26298e-10      
                   2.88079e-11      1.26298e-10      1.26298e-10      
                   7.26189e-11      7.29602e-11      4.88601e-11      
                   4.10809e-11      7.29602e-11      4.88601e-11      
                   7.29602e-11      2.85887e-11      2.82110e-11      
                   1.64340e-11      1.26642e-10      2.85887e-11      
                   1.26642e-10      1.26642e-10      1.26298e-10      
                   1.26642e-10      1.26642e-10      1.02739e-15      
                    27.000000         1.000000       
  1.41000e-07      8.10208e-06      4.86869e-11      7.29109e-11      
                   7.30132e-11      4.13579e-11      7.29109e-11      
                   7.30132e-11      7.30132e-11      1.67948e-11      
                   2.87056e-11      2.90955e-11      1.25574e-10      
                   2.87056e-11      1.25574e-10      1.25574e-10      
                   7.22953e-11      7.26470e-11      4.86739e-11      
                   4.08970e-11      7.26470e-11      4.86739e-11      
                   7.26470e-11      2.84857e-11      2.81088e-11      
                   1.65386e-11      1.25870e-10      2.84857e-11      
                   1.25870e-10      1.25870e-10      1.25574e-10      
                   1.25870e-10      1.25870e-10      1.01981e-15      
                    27.000000         1.000000       
  1.42000e-07      8.10149e-06      4.84234e-11      7.18411e-11      
                   7.26880e-11      4.11079e-11      7.18411e-11      
                   7.26880e-11      7.26880e-11      1.66927e-11      
                   2.78482e-11      2.89822e-11      1.24861e-10      
                   2.78482e-11      1.24861e-10      1.24861e-10      
                   7.19768e-11      7.23379e-11      4.84026e-11      
                   4.07141e-11      7.23379e-11      4.84026e-11      
                   7.23379e-11      2.83841e-11      2.80080e-11      
                   1.64466e-11      1.25106e-10      2.83841e-11      
                   1.25106e-10      1.25106e-10      1.24861e-10      
                   1.25106e-10      1.25106e-10      1.01355e-15      
                    27.000000         1.000000       
  1.43000e-07      8.10394e-06      4.81642e-11      7.22723e-11      
                   7.23677e-11      4.08592e-11      7.22723e-11      
                   7.23677e-11      7.23677e-11      1.65912e-11      
                   2.85054e-11      2.88703e-11      1.24158e-10      
                   2.85054e-11      1.24158e-10      1.24158e-10      
                   7.16633e-11      7.20338e-11      4.81343e-11      
                   4.05324e-11      7.20338e-11      4.81343e-11      
                   7.20338e-11      2.82840e-11      2.79056e-11      
                   1.63555e-11      1.24357e-10      2.82840e-11      
                   1.24357e-10      1.24357e-10      1.24158e-10      
                   1.24357e-10      1.24357e-10      1.00778e-15      
                    27.000000         1.000000       
  1.44000e-07      8.09709e-06      4.79089e-11      7.19605e-11      
                   7.20523e-11      4.06120e-11      7.19605e-11      
                   7.20523e-11      7.20523e-11      1.64901e-11      
                   2.84075e-11      2.87597e-11      1.23466e-10      
                   2.84075e-11      1.23466e-10      1.23466e-10      
                   7.13547e-11      7.17326e-11      4.78688e-11      
                   4.03517e-11      7.17326e-11      4.78688e-11      
                   7.17326e-11      2.81852e-11      2.78077e-11      
                   1.62652e-11      1.23622e-10      2.81852e-11      
                   1.23622e-10      1.23622e-10      1.23466e-10      
                   1.23622e-10      1.23622e-10      1.00098e-15      
                    27.000000         1.000000       
  1.45000e-07      8.08953e-06      4.76576e-11      7.16535e-11      
                   7.17418e-11      4.03660e-11      7.16535e-11      
                   7.17418e-11      7.17418e-11      1.63896e-11      
                   2.83111e-11      2.86506e-11      1.22784e-10      
                   2.83111e-11      1.22784e-10      1.22784e-10      
                   7.10508e-11      7.14353e-11      4.76062e-11      
                   4.01720e-11      7.14353e-11      4.76062e-11      
                   7.14353e-11      2.80878e-11      2.77111e-11      
                   1.61757e-11      1.22902e-10      2.80878e-11      
                   1.22902e-10      1.22902e-10      1.22784e-10      
                   1.22902e-10      1.22902e-10      9.94217e-16      
                    27.000000         1.000000       
  1.46000e-07      8.09348e-06      4.74103e-11      7.13512e-11      
                   7.14360e-11      4.01213e-11      7.13512e-11      
                   7.14360e-11      7.14360e-11      1.62897e-11      
                   2.82160e-11      2.85492e-11      1.22112e-10      
                   2.82160e-11      1.22112e-10      1.22112e-10      
                   7.07749e-11      7.11418e-11      4.73483e-11      
                   3.99934e-11      7.11418e-11      4.73483e-11      
                   7.11418e-11      2.79917e-11      2.76158e-11      
                   1.60871e-11      1.22196e-10      2.79917e-11      
                   1.22196e-10      1.22196e-10      1.22112e-10      
                   1.22196e-10      1.22196e-10      9.88994e-16      
                    27.000000         1.000000       
  1.47000e-07      8.08988e-06      4.71666e-11      7.10560e-11      
                   7.11349e-11      3.98780e-11      7.10560e-11      
                   7.11349e-11      7.11349e-11      1.61902e-11      
                   2.81242e-11      2.84547e-11      1.21451e-10      
                   2.81242e-11      1.21451e-10      1.21451e-10      
                   7.05071e-11      7.08520e-11      4.70941e-11      
                   3.98156e-11      7.08520e-11      4.70941e-11      
                   7.08520e-11      2.78970e-11      2.75218e-11      
                   1.59992e-11      1.21505e-10      2.78970e-11      
                   1.21505e-10      1.21505e-10      1.21451e-10      
                   1.21505e-10      1.21505e-10      9.82965e-16      
                    27.000000         1.000000       
  1.48000e-07      8.09034e-06      4.69267e-11      7.01717e-11      
                   7.08384e-11      3.96358e-11      7.01717e-11      
                   7.08384e-11      7.08384e-11      1.60913e-11      
                   2.72488e-11      2.83616e-11      1.20799e-10      
                   2.72488e-11      1.20799e-10      1.20799e-10      
                   7.02428e-11      7.01787e-11      4.68428e-11      
                   3.96388e-11      7.02428e-11      4.68428e-11      
                   7.02428e-11      2.78035e-11      2.71104e-11      
                   1.59120e-11      1.20829e-10      2.78035e-11      
                   1.20829e-10      1.20829e-10      1.20799e-10      
                   1.20829e-10      1.20829e-10      9.77547e-16      
                    27.000000         1.000000       
  1.49000e-07      8.08206e-06      4.66905e-11      7.04117e-11      
                   7.05464e-11      3.93950e-11      7.04117e-11      
                   7.05464e-11      7.05464e-11      1.59928e-11      
                   2.78977e-11      2.82697e-11      1.20157e-10      
                   2.78977e-11      1.20157e-10      1.20157e-10      
                   6.99820e-11      7.02836e-11      4.65944e-11      
                   3.94630e-11      7.02836e-11      4.65944e-11      
                   7.02836e-11      2.77113e-11      2.73374e-11      
                   1.58256e-11      1.20166e-10      2.77113e-11      
                   1.20166e-10      1.20166e-10      1.20157e-10      
                   1.20166e-10      1.20166e-10      9.71187e-16      
                    27.000000         1.000000       
  1.50000e-07      8.07561e-06      4.64577e-11      6.96572e-11      
                   7.02587e-11      3.91553e-11      6.96572e-11      
                   7.02587e-11      7.02587e-11      1.58948e-11      
                   2.70961e-11      2.81792e-11      1.19525e-10      
                   2.70961e-11      1.19525e-10      1.19525e-10      
                   6.97245e-11      7.00047e-11      4.63488e-11      
                   3.92880e-11      7.00047e-11      4.63488e-11      
                   7.00047e-11      2.76203e-11      2.72470e-11      
                   1.57400e-11      1.19516e-10      2.76203e-11      
                   1.19516e-10      1.19516e-10      1.19525e-10      
                   1.19516e-10      1.19525e-10      9.65238e-16      
                    27.000000         1.000000       
  1.51000e-07      8.07567e-06      4.62284e-11      6.99073e-11      
                   6.99754e-11      3.89168e-11      6.99073e-11      
                   6.99754e-11      6.99754e-11      1.57973e-11      
                   2.77609e-11      2.80898e-11      1.18903e-10      
                   2.77609e-11      1.18903e-10      1.18903e-10      
                   6.94700e-11      6.97292e-11      4.61112e-11      
                   3.91140e-11      6.97292e-11      4.61112e-11      
                   6.97292e-11      2.75305e-11      2.71578e-11      
                   1.56552e-11      1.18879e-10      2.75305e-11      
                   1.18879e-10      1.18879e-10      1.18903e-10      
                   1.18879e-10      1.18903e-10      9.60221e-16      
                    27.000000         1.000000       
  1.52000e-07      8.07226e-06      4.60025e-11      6.96312e-11      
                   6.96963e-11      3.86794e-11      6.96312e-11      
                   6.96963e-11      6.96963e-11      1.57003e-11      
                   2.76737e-11      2.80018e-11      1.18291e-10      
                   2.76737e-11      1.18291e-10      1.18291e-10      
                   6.92185e-11      6.94572e-11      4.58784e-11      
                   3.89408e-11      6.94572e-11      4.58784e-11      
                   6.94572e-11      2.74419e-11      2.70697e-11      
                   1.55711e-11      1.18254e-10      2.74419e-11      
                   1.18254e-10      1.18254e-10      1.18291e-10      
                   1.18254e-10      1.18291e-10      9.54872e-16      
                    27.000000         1.000000       
  1.53000e-07      8.06857e-06      4.57799e-11      6.93590e-11      
                   6.94213e-11      3.84432e-11      6.93590e-11      
                   6.94213e-11      6.94213e-11      1.56037e-11      
                   2.75877e-11      2.79149e-11      1.17688e-10      
                   2.75877e-11      1.17688e-10      1.17688e-10      
                   6.89688e-11      6.91886e-11      4.56489e-11      
                   3.87684e-11      6.91886e-11      4.56489e-11      
                   6.91886e-11      2.73544e-11      2.69827e-11      
                   1.54876e-11      1.17640e-10      2.73544e-11      
                   1.17640e-10      1.17640e-10      1.17688e-10      
                   1.17640e-10      1.17688e-10      9.49572e-16      
                    27.000000         1.000000       
  1.54000e-07      8.06450e-06      4.55605e-11      6.90908e-11      
                   6.91503e-11      3.82147e-11      6.90908e-11      
                   6.91503e-11      6.91503e-11      1.55076e-11      
                   2.75030e-11      2.78293e-11      1.17094e-10      
                   2.75030e-11      1.17094e-10      1.17094e-10      
                   6.87184e-11      6.89233e-11      4.54225e-11      
                   3.85968e-11      6.89233e-11      4.54225e-11      
                   6.89233e-11      2.72681e-11      2.68969e-11      
                   1.54049e-11      1.17038e-10      2.72681e-11      
                   1.17038e-10      1.17038e-10      1.17094e-10      
                   1.17038e-10      1.17094e-10      9.44308e-16      
                    27.000000         1.000000       
  1.55000e-07      8.06007e-06      4.53443e-11      6.88265e-11      
                   6.88832e-11      3.80598e-11      6.88265e-11      
                   6.88832e-11      6.88832e-11      1.54120e-11      
                   2.74194e-11      2.77448e-11      1.16510e-10      
                   2.74194e-11      1.16510e-10      1.16510e-10      
                   6.84713e-11      6.86612e-11      4.51993e-11      
                   3.84260e-11      6.86612e-11      4.51993e-11      
                   6.86612e-11      2.71829e-11      2.68120e-11      
                   1.53229e-11      1.16447e-10      2.71829e-11      
                   1.16447e-10      1.16447e-10      1.16510e-10      
                   1.16447e-10      1.16510e-10      9.39080e-16      
                    27.000000         1.000000       
  1.56000e-07      8.05539e-06      4.51311e-11      6.85658e-11      
                   6.86200e-11      3.79060e-11      6.85658e-11      
                   6.86200e-11      6.86200e-11      1.53168e-11      
                   2.73369e-11      2.76615e-11      1.15935e-10      
                   2.73369e-11      1.15935e-10      1.15935e-10      
                   6.82238e-11      6.84023e-11      4.49792e-11      
                   3.82559e-11      6.84023e-11      4.49792e-11      
                   6.84023e-11      2.70987e-11      2.67282e-11      
                   1.52415e-11      1.15865e-10      2.70987e-11      
                   1.15865e-10      1.15865e-10      1.15935e-10      
                   1.15865e-10      1.15935e-10      9.33901e-16      
                    27.000000         1.000000       
  1.57000e-07      8.05152e-06      4.49209e-11      6.83088e-11      
                   6.83603e-11      3.77532e-11      6.83088e-11      
                   6.83603e-11      6.83603e-11      1.52221e-11      
                   2.72556e-11      2.75793e-11      1.15368e-10      
                   2.72556e-11      1.15368e-10      1.15368e-10      
                   6.79761e-11      6.81465e-11      4.47621e-11      
                   3.80866e-11      6.81465e-11      4.47621e-11      
                   6.81465e-11      2.70156e-11      2.66454e-11      
                   1.51608e-11      1.15294e-10      2.70156e-11      
                   1.15294e-10      1.15294e-10      1.15368e-10      
                   1.15294e-10      1.15368e-10      9.28891e-16      
                    27.000000         1.000000       
  1.58000e-07      8.04868e-06      4.47136e-11      6.80554e-11      
                   6.81043e-11      3.76013e-11      6.80554e-11      
                   6.81043e-11      6.81043e-11      1.51279e-11      
                   2.71754e-11      2.74982e-11      1.14810e-10      
                   2.71754e-11      1.14810e-10      1.14810e-10      
                   6.77321e-11      6.78939e-11      4.45480e-11      
                   3.79180e-11      6.78939e-11      4.45480e-11      
                   6.78939e-11      2.69336e-11      2.65635e-11      
                   1.50807e-11      1.14732e-10      2.69336e-11      
                   1.14732e-10      1.14732e-10      1.14810e-10      
                   1.14732e-10      1.14810e-10      9.24071e-16      
                    27.000000         1.000000       
  1.59000e-07      8.04547e-06      4.45091e-11      6.78055e-11      
                   6.78518e-11      3.74505e-11      6.78055e-11      
                   6.78518e-11      6.78518e-11      1.50340e-11      
                   2.70962e-11      2.74181e-11      1.14260e-10      
                   2.70962e-11      1.14260e-10      1.14260e-10      
                   6.74917e-11      6.76444e-11      4.43367e-11      
                   3.77501e-11      6.76444e-11      4.43367e-11      
                   6.76444e-11      2.68525e-11      2.64826e-11      
                   1.50013e-11      1.14179e-10      2.68525e-11      
                   1.14179e-10      1.14179e-10      1.14260e-10      
                   1.14179e-10      1.14260e-10      9.19276e-16      
                    27.000000         1.000000       
  1.60000e-07      8.04429e-06      4.43073e-11      6.75591e-11      
                   6.76325e-11      3.73007e-11      6.75591e-11      
                   6.76325e-11      6.76325e-11      1.49406e-11      
                   2.70181e-11      2.73392e-11      1.13718e-10      
                   2.70181e-11      1.13718e-10      1.13718e-10      
                   6.72547e-11      6.73983e-11      4.41283e-11      
                   3.75829e-11      6.73983e-11      4.41283e-11      
                   6.73983e-11      2.67725e-11      2.64027e-11      
                   1.49226e-11      1.13634e-10      2.67725e-11      
                   1.13634e-10      1.13634e-10      1.13718e-10      
                   1.13634e-10      1.13718e-10      9.14777e-16      
                    27.000000         1.000000       
  1.61000e-07      8.04313e-06      4.41083e-11      6.73262e-11      
                   6.74193e-11      3.71518e-11      6.73262e-11      
                   6.74193e-11      6.74193e-11      1.48477e-11      
                   2.69411e-11      2.72613e-11      1.13182e-10      
                   2.69411e-11      1.13182e-10      1.13182e-10      
                   6.70209e-11      6.71551e-11      4.39228e-11      
                   3.74164e-11      6.71551e-11      4.39228e-11      
                   6.71551e-11      2.66934e-11      2.63236e-11      
                   1.48444e-11      1.13098e-10      2.66934e-11      
                   1.13098e-10      1.13098e-10      1.13182e-10      
                   1.13098e-10      1.13182e-10      9.10339e-16      
                    27.000000         1.000000       
  1.62000e-07      8.03241e-06      4.39118e-11      6.71055e-11      
                   6.72087e-11      3.70038e-11      6.71055e-11      
                   6.72087e-11      6.72087e-11      1.47926e-11      
                   2.68651e-11      2.71844e-11      1.12654e-10      
                   2.68651e-11      1.12654e-10      1.12654e-10      
                   6.67901e-11      6.69148e-11      4.37200e-11      
                   3.72505e-11      6.69148e-11      4.37200e-11      
                   6.69148e-11      2.66153e-11      2.62455e-11      
                   1.47668e-11      1.12570e-10      2.66153e-11      
                   1.12570e-10      1.12570e-10      1.12654e-10      
                   1.12570e-10      1.12654e-10      9.04882e-16      
                    27.000000         1.000000       
  1.63000e-07      8.03139e-06      4.37178e-11      6.68879e-11      
                   6.69844e-11      3.68568e-11      6.68879e-11      
                   6.69844e-11      6.69844e-11      1.47379e-11      
                   2.67901e-11      2.71086e-11      1.12132e-10      
                   2.67901e-11      1.12132e-10      1.12132e-10      
                   6.65622e-11      6.66774e-11      4.35199e-11      
                   3.70853e-11      6.66774e-11      4.35199e-11      
                   6.66774e-11      2.65380e-11      2.61682e-11      
                   1.46899e-11      1.12049e-10      2.65380e-11      
                   1.12049e-10      1.12049e-10      1.12132e-10      
                   1.12049e-10      1.12132e-10      9.00574e-16      
                    27.000000         1.000000       
  1.64000e-07      8.03043e-06      4.35262e-11      6.66730e-11      
                   6.67634e-11      3.67106e-11      6.66730e-11      
                   6.67634e-11      6.67634e-11      1.46836e-11      
                   2.67161e-11      2.70337e-11      1.11578e-10      
                   2.67161e-11      1.11578e-10      1.11578e-10      
                   6.63371e-11      6.64429e-11      4.33224e-11      
                   3.69206e-11      6.64429e-11      4.33224e-11      
                   6.64429e-11      2.64618e-11      2.60917e-11      
                   1.46135e-11      1.11536e-10      2.64618e-11      
                   1.11536e-10      1.11536e-10      1.11578e-10      
                   1.11536e-10      1.11578e-10      8.96017e-16      
                    27.000000         1.000000       
  1.65000e-07      8.03006e-06      4.33370e-11      6.64610e-11      
                   6.65456e-11      3.65653e-11      6.64610e-11      
                   6.65456e-11      6.65456e-11      1.46297e-11      
                   2.66431e-11      2.69599e-11      1.11018e-10      
                   2.66431e-11      1.11018e-10      1.11018e-10      
                   6.61146e-11      6.62112e-11      4.31276e-11      
                   3.67566e-11      6.62112e-11      4.31276e-11      
                   6.62112e-11      2.63863e-11      2.60161e-11      
                   1.45377e-11      1.11028e-10      2.63863e-11      
                   1.11028e-10      1.11028e-10      1.11018e-10      
                   1.11028e-10      1.11028e-10      8.91566e-16      
                    27.000000         1.000000       
  1.66000e-07      8.03810e-06      4.31501e-11      6.62516e-11      
                   6.63309e-11      3.64209e-11      6.62516e-11      
                   6.63309e-11      6.63309e-11      1.45762e-11      
                   2.65710e-11      2.68869e-11      1.10467e-10      
                   2.65710e-11      1.10467e-10      1.10467e-10      
                   6.58945e-11      6.48609e-11      4.29352e-11      
                   3.65931e-11      6.58945e-11      4.29352e-11      
                   6.58945e-11      2.63118e-11      2.52422e-11      
                   1.44626e-11      1.10517e-10      2.63118e-11      
                   1.10517e-10      1.10517e-10      1.10467e-10      
                   1.10517e-10      1.10517e-10      8.88347e-16      
                    27.000000         1.000000       
  1.67000e-07      8.03184e-06      4.29654e-11      6.60449e-11      
                   6.62727e-11      3.62773e-11      6.60449e-11      
                   6.62727e-11      6.62727e-11      1.45230e-11      
                   2.64998e-11      2.69685e-11      1.09923e-10      
                   2.64998e-11      1.09923e-10      1.09923e-10      
                   6.56768e-11      6.57526e-11      4.27454e-11      
                   3.64302e-11      6.57526e-11      4.27454e-11      
                   6.57526e-11      2.62381e-11      2.58672e-11      
                   1.43879e-11      1.10012e-10      2.62381e-11      
                   1.10012e-10      1.10012e-10      1.09923e-10      
                   1.10012e-10      1.10012e-10      8.83600e-16      
                    27.000000         1.000000       
  1.68000e-07      8.03006e-06      4.27829e-11      6.58408e-11      
                   6.60636e-11      3.61346e-11      6.58408e-11      
                   6.60636e-11      6.60636e-11      1.44701e-11      
                   2.64297e-11      2.68971e-11      1.09388e-10      
                   2.64297e-11      1.09388e-10      1.09388e-10      
                   6.54613e-11      6.55287e-11      4.25580e-11      
                   3.62673e-11      6.55287e-11      4.25580e-11      
                   6.55287e-11      2.61653e-11      2.57939e-11      
                   1.43138e-11      1.09513e-10      2.61653e-11      
                   1.09513e-10      1.09513e-10      1.09388e-10      
                   1.09513e-10      1.09513e-10      8.79398e-16      
                    27.000000         1.000000       
  1.69000e-07      8.02102e-06      4.26023e-11      6.56393e-11      
                   6.58573e-11      3.59927e-11      6.56393e-11      
                   6.58573e-11      6.58573e-11      1.44176e-11      
                   2.63604e-11      2.68266e-11      1.08861e-10      
                   2.63604e-11      1.08861e-10      1.08861e-10      
                   6.52480e-11      6.53075e-11      4.23730e-11      
                   3.53806e-11      6.53075e-11      4.23730e-11      
                   6.53075e-11      2.60932e-11      2.57214e-11      
                   1.42403e-11      1.09261e-10      2.60932e-11      
                   1.09261e-10      1.09261e-10      1.08861e-10      
                   1.09261e-10      1.09261e-10      8.76383e-16      
                    27.000000         1.000000       
  1.70000e-07      8.02765e-06      4.24238e-11      6.54402e-11      
                   6.56496e-11      3.58514e-11      6.54402e-11      
                   6.56496e-11      6.56496e-11      1.43654e-11      
                   2.62919e-11      2.67530e-11      1.08342e-10      
                   2.62919e-11      1.08342e-10      1.08342e-10      
                   6.50367e-11      6.50889e-11      4.21903e-11      
                   3.51622e-11      6.50889e-11      4.21903e-11      
                   6.50889e-11      2.60220e-11      2.56497e-11      
                   1.41672e-11      1.08576e-10      2.60220e-11      
                   1.08576e-10      1.08576e-10      1.08342e-10      
                   1.08576e-10      1.08576e-10      8.71608e-16      
                    27.000000         1.000000       
  1.71000e-07      8.02673e-06      4.22471e-11      6.52435e-11      
                   6.54489e-11      3.57111e-11      6.52435e-11      
                   6.54489e-11      6.54489e-11      1.43135e-11      
                   2.62244e-11      2.66844e-11      1.07832e-10      
                   2.62244e-11      1.07832e-10      1.07832e-10      
                   6.48275e-11      6.48729e-11      4.20100e-11      
                   3.57833e-11      6.48729e-11      4.20100e-11      
                   6.48729e-11      2.59516e-11      2.55786e-11      
                   1.40948e-11      1.08053e-10      2.59516e-11      
                   1.08053e-10      1.08053e-10      1.07832e-10      
                   1.08053e-10      1.08053e-10      8.67314e-16      
                    27.000000         1.000000       
  1.72000e-07      8.03031e-06      4.20723e-11      6.50492e-11      
                   6.52508e-11      3.55715e-11      6.50492e-11      
                   6.52508e-11      6.52508e-11      1.42619e-11      
                   2.61577e-11      2.66165e-11      1.07330e-10      
                   2.61577e-11      1.07330e-10      1.07330e-10      
                   6.46201e-11      6.46594e-11      4.18318e-11      
                   3.56230e-11      6.46594e-11      4.18318e-11      
                   6.46594e-11      2.58819e-11      2.55083e-11      
                   1.40228e-11      1.07578e-10      2.58819e-11      
                   1.07578e-10      1.07578e-10      1.07330e-10      
                   1.07578e-10      1.07578e-10      8.63888e-16      
                    27.000000         1.000000       
  1.73000e-07      8.02370e-06      4.18993e-11      6.48572e-11      
                   6.50554e-11      3.54327e-11      6.48572e-11      
                   6.50554e-11      6.50554e-11      1.42106e-11      
                   2.60919e-11      2.65496e-11      1.06836e-10      
                   2.60919e-11      1.06836e-10      1.06836e-10      
                   6.44147e-11      6.44485e-11      4.16559e-11      
                   3.54632e-11      6.44485e-11      4.16559e-11      
                   6.44485e-11      2.58129e-11      2.54386e-11      
                   1.39513e-11      1.07109e-10      2.58129e-11      
                   1.07109e-10      1.07109e-10      1.06836e-10      
                   1.07109e-10      1.07109e-10      8.59413e-16      
                    27.000000         1.000000       
  1.74000e-07      8.02251e-06      4.17280e-11      6.46634e-11      
                   6.48623e-11      3.52946e-11      6.46634e-11      
                   6.48623e-11      6.48623e-11      1.41597e-11      
                   2.60269e-11      2.64833e-11      1.06351e-10      
                   2.60269e-11      1.06351e-10      1.06351e-10      
                   6.42111e-11      6.42400e-11      4.14821e-11      
                   3.53038e-11      6.42400e-11      4.14821e-11      
                   6.42400e-11      2.57447e-11      2.53743e-11      
                   1.38804e-11      1.06646e-10      2.57447e-11      
                   1.06646e-10      1.06646e-10      1.06351e-10      
                   1.06646e-10      1.06646e-10      8.55566e-16      
                    27.000000         1.000000       
  1.75000e-07      8.02136e-06      4.15583e-11      6.44699e-11      
                   6.46717e-11      3.51572e-11      6.44699e-11      
                   6.46717e-11      6.46717e-11      1.41089e-11      
                   2.59627e-11      2.64180e-11      1.05873e-10      
                   2.59627e-11      1.05873e-10      1.05873e-10      
                   6.40093e-11      6.40340e-11      4.13105e-11      
                   3.51449e-11      6.40340e-11      4.13105e-11      
                   6.40340e-11      2.56772e-11      2.53153e-11      
                   1.38100e-11      1.06188e-10      2.56772e-11      
                   1.06188e-10      1.06188e-10      1.05873e-10      
                   1.06188e-10      1.06188e-10      8.51769e-16      
                    27.000000         1.000000       
  1.76000e-07      8.01561e-06      4.13903e-11      6.42790e-11      
                   6.44836e-11      3.50202e-11      6.42790e-11      
                   6.44836e-11      6.44836e-11      1.40585e-11      
                   2.58993e-11      2.63535e-11      1.05404e-10      
                   2.58993e-11      1.05404e-10      1.05404e-10      
                   6.38092e-11      6.38304e-11      4.11409e-11      
                   3.49864e-11      6.38304e-11      4.11409e-11      
                   6.38304e-11      2.56104e-11      2.52571e-11      
                   1.37400e-11      1.05737e-10      2.56104e-11      
                   1.05737e-10      1.05737e-10      1.05404e-10      
                   1.05737e-10      1.05737e-10      8.47543e-16      
                    27.000000         1.000000       
  1.77000e-07      8.01823e-06      4.12237e-11      6.40907e-11      
                   6.42977e-11      3.48846e-11      6.40907e-11      
                   6.42977e-11      6.42977e-11      1.40083e-11      
                   2.58368e-11      2.62898e-11      1.04942e-10      
                   2.58368e-11      1.04942e-10      1.04942e-10      
                   6.36107e-11      6.36293e-11      4.09733e-11      
                   3.48283e-11      6.36293e-11      4.09733e-11      
                   6.36293e-11      2.55443e-11      2.51996e-11      
                   1.36705e-11      1.05293e-10      2.55443e-11      
                   1.05293e-10      1.05293e-10      1.04942e-10      
                   1.05293e-10      1.05293e-10      8.44260e-16      
                    27.000000         1.000000       
  1.78000e-07      8.01690e-06      4.10587e-11      6.39049e-11      
                   6.41141e-11      3.47493e-11      6.39049e-11      
                   6.41141e-11      6.41141e-11      1.39585e-11      
                   2.57749e-11      2.62269e-11      1.04487e-10      
                   2.57749e-11      1.04487e-10      1.04487e-10      
                   6.34137e-11      6.34304e-11      4.08076e-11      
                   3.46707e-11      6.34304e-11      4.08076e-11      
                   6.34304e-11      2.54789e-11      2.51429e-11      
                   1.36015e-11      1.04854e-10      2.54789e-11      
                   1.04854e-10      1.04854e-10      1.04487e-10      
                   1.04854e-10      1.04854e-10      8.40600e-16      
                    27.000000         1.000000       
  1.79000e-07      8.01131e-06      4.08951e-11      6.37214e-11      
                   6.39328e-11      3.46147e-11      6.37214e-11      
                   6.39328e-11      6.39328e-11      1.39088e-11      
                   2.57139e-11      2.61647e-11      1.04040e-10      
                   2.57139e-11      1.04040e-10      1.04040e-10      
                   6.32187e-11      6.32339e-11      4.06873e-11      
                   3.45134e-11      6.32339e-11      4.06873e-11      
                   6.32339e-11      2.54141e-11      2.50869e-11      
                   1.36639e-11      1.04419e-10      2.54141e-11      
                   1.04419e-10      1.04419e-10      1.04040e-10      
                   1.04419e-10      1.04419e-10      8.36537e-16      
                    27.000000         1.000000       
  1.80000e-07      8.01495e-06      4.07329e-11      6.35403e-11      
                   6.37536e-11      3.44807e-11      6.35403e-11      
                   6.37536e-11      6.37536e-11      1.38595e-11      
                   2.56536e-11      2.61034e-11      1.03599e-10      
                   2.56536e-11      1.03599e-10      1.03599e-10      
                   6.30262e-11      6.30397e-11      4.04821e-11      
                   3.43565e-11      6.30397e-11      4.04821e-11      
                   6.30397e-11      2.53501e-11      2.50317e-11      
                   1.34649e-11      1.03990e-10      2.53501e-11      
                   1.03990e-10      1.03990e-10      1.03599e-10      
                   1.03990e-10      1.03990e-10      8.33477e-16      
                    27.000000         1.000000       
  1.81000e-07      8.01313e-06      4.05719e-11      6.33615e-11      
                   6.35765e-11      3.43474e-11      6.33615e-11      
                   6.35765e-11      6.35765e-11      1.38103e-11      
                   2.55940e-11      2.60427e-11      1.03166e-10      
                   2.55940e-11      1.03166e-10      1.03166e-10      
                   6.28357e-11      6.24373e-11      4.03221e-11      
                   3.42001e-11      6.28357e-11      4.03221e-11      
                   6.28357e-11      2.52868e-11      2.46962e-11      
                   1.33972e-11      1.03566e-10      2.52868e-11      
                   1.03566e-10      1.03566e-10      1.03166e-10      
                   1.03566e-10      1.03566e-10      8.29888e-16      
                    27.000000         1.000000       
  1.82000e-07      8.01204e-06      4.04122e-11      6.31848e-11      
                   6.34015e-11      3.42147e-11      6.31848e-11      
                   6.34015e-11      6.34015e-11      1.37615e-11      
                   2.55352e-11      2.59828e-11      1.02739e-10      
                   2.55352e-11      1.02739e-10      1.02739e-10      
                   6.26473e-11      6.26580e-11      4.01638e-11      
                   3.40439e-11      6.26580e-11      4.01638e-11      
                   6.26580e-11      2.52242e-11      2.49233e-11      
                   1.33301e-11      1.03147e-10      2.52242e-11      
                   1.03147e-10      1.03147e-10      1.02739e-10      
                   1.03147e-10      1.03147e-10      8.26414e-16      
                    27.000000         1.000000       
  1.83000e-07      8.01083e-06      4.02537e-11      6.30104e-11      
                   6.32285e-11      3.40826e-11      6.30104e-11      
                   6.32285e-11      6.32285e-11      1.37128e-11      
                   2.54770e-11      2.59236e-11      1.02319e-10      
                   2.54770e-11      1.02319e-10      1.02319e-10      
                   6.24610e-11      6.24705e-11      4.00073e-11      
                   3.38882e-11      6.24705e-11      4.00073e-11      
                   6.24705e-11      2.51622e-11      2.48702e-11      
                   1.32634e-11      1.02732e-10      2.51622e-11      
                   1.02732e-10      1.02732e-10      1.02319e-10      
                   1.02732e-10      1.02732e-10      8.22966e-16      
                    27.000000         1.000000       
  1.84000e-07      8.00978e-06      4.00963e-11      6.28380e-11      
                   6.30575e-11      3.39512e-11      6.28380e-11      
                   6.30575e-11      6.30575e-11      1.36644e-11      
                   2.54196e-11      2.58652e-11      1.01904e-10      
                   2.54196e-11      1.01904e-10      1.01904e-10      
                   6.22766e-11      6.22851e-11      3.98524e-11      
                   3.37328e-11      6.22851e-11      3.98524e-11      
                   6.22851e-11      2.51009e-11      2.48178e-11      
                   1.31971e-11      1.02322e-10      2.51009e-11      
                   1.02322e-10      1.02322e-10      1.01904e-10      
                   1.02322e-10      1.02322e-10      8.19573e-16      
                    27.000000         1.000000       
  1.85000e-07      8.00912e-06      3.99399e-11      6.26677e-11      
                   6.28884e-11      3.38203e-11      6.26677e-11      
                   6.28884e-11      6.28884e-11      1.36162e-11      
                   2.53629e-11      2.58074e-11      1.01496e-10      
                   2.53629e-11      1.01496e-10      1.01496e-10      
                   6.20943e-11      6.22239e-11      3.96992e-11      
                   3.35777e-11      6.22239e-11      3.96992e-11      
                   6.22239e-11      2.50403e-11      2.48051e-11      
                   1.31312e-11      1.01916e-10      2.50403e-11      
                   1.01916e-10      1.01916e-10      1.01496e-10      
                   1.01916e-10      1.01916e-10      8.16259e-16      
                    27.000000         1.000000       
  1.86000e-07      8.00805e-06      3.97844e-11      6.24993e-11      
                   6.27212e-11      3.39141e-11      6.24993e-11      
                   6.27212e-11      6.27212e-11      1.35682e-11      
                   2.53068e-11      2.57503e-11      1.01317e-10      
                   2.53068e-11      1.01317e-10      1.01317e-10      
                   6.19139e-11      6.19207e-11      3.95476e-11      
                   3.34229e-11      6.19207e-11      3.95476e-11      
                   6.19207e-11      2.49803e-11      2.47151e-11      
                   1.30658e-11      1.01515e-10      2.49803e-11      
                   1.01515e-10      1.01515e-10      1.01317e-10      
                   1.01515e-10      1.01515e-10      8.12939e-16      
                    27.000000         1.000000       
  1.87000e-07      8.00327e-06      3.96298e-11      6.18110e-11      
                   6.25502e-11      3.37840e-11      6.18110e-11      
                   6.25502e-11      6.25502e-11      1.35204e-11      
                   2.45071e-11      2.56939e-11      1.00919e-10      
                   2.45071e-11      1.00919e-10      1.00919e-10      
                   6.17355e-11      6.17415e-11      3.93975e-11      
                   3.32685e-11      6.17415e-11      3.93975e-11      
                   6.17415e-11      2.49209e-11      2.46647e-11      
                   1.30008e-11      1.01119e-10      2.49209e-11      
                   1.01119e-10      1.01119e-10      1.00919e-10      
                   1.01119e-10      1.01119e-10      8.09281e-16      
                    27.000000         1.000000       
  1.88000e-07      8.00691e-06      3.94760e-11      6.21685e-11      
                   6.23811e-11      3.36544e-11      6.21685e-11      
                   6.23811e-11      6.23811e-11      1.34728e-11      
                   2.51966e-11      2.56382e-11      1.00526e-10      
                   2.51966e-11      1.00526e-10      1.00526e-10      
                   6.15590e-11      6.15644e-11      3.92490e-11      
                   3.31144e-11      6.15644e-11      3.92490e-11      
                   6.15644e-11      2.48622e-11      2.46149e-11      
                   1.29361e-11      1.00727e-10      2.48622e-11      
                   1.00727e-10      1.00727e-10      1.00526e-10      
                   1.00727e-10      1.00727e-10      8.06511e-16      
                    27.000000         1.000000       
  1.89000e-07      8.00537e-06      3.93229e-11      6.20059e-11      
                   6.22141e-11      3.35254e-11      6.20059e-11      
                   6.22141e-11      6.22141e-11      1.34255e-11      
                   2.51425e-11      2.55831e-11      1.00139e-10      
                   2.51425e-11      1.00139e-10      1.00139e-10      
                   6.13844e-11      6.13891e-11      3.91018e-11      
                   3.29606e-11      6.13891e-11      3.91018e-11      
                   6.13891e-11      2.48040e-11      2.45657e-11      
                   1.28719e-11      1.00339e-10      2.48040e-11      
                   1.00339e-10      1.00339e-10      1.00139e-10      
                   1.00339e-10      1.00339e-10      8.03253e-16      
                    27.000000         1.000000       
  1.90000e-07      8.00179e-06      3.91704e-11      6.18451e-11      
                   6.20491e-11      3.33969e-11      6.18451e-11      
                   6.20491e-11      6.20491e-11      1.33783e-11      
                   2.50890e-11      2.55287e-11      9.97561e-11      
                   2.50890e-11      9.97561e-11      9.97561e-11      
                   6.12117e-11      6.12159e-11      3.89561e-11      
                   3.28070e-11      6.12159e-11      3.89561e-11      
                   6.12159e-11      2.47465e-11      2.45172e-11      
                   1.28081e-11      9.99561e-11      2.47465e-11      
                   9.99561e-11      9.99561e-11      9.97561e-11      
                   9.99561e-11      9.99561e-11      7.99827e-16      
                    27.000000         1.000000       
  1.91000e-07      8.00355e-06      3.90184e-11      6.16862e-11      
                   6.18862e-11      3.32689e-11      6.16862e-11      
                   6.18862e-11      6.18862e-11      1.33313e-11      
                   2.50362e-11      2.54749e-11      9.93779e-11      
                   2.50362e-11      9.93779e-11      9.93779e-11      
                   6.10409e-11      6.07706e-11      3.87752e-11      
                   3.26538e-11      6.10409e-11      3.87752e-11      
                   6.10409e-11      2.46895e-11      2.42111e-11      
                   1.29438e-11      9.95771e-11      2.46895e-11      
                   9.95771e-11      9.95771e-11      9.93779e-11      
                   9.95771e-11      9.95771e-11      7.96970e-16      
                    27.000000         1.000000       
  1.92000e-07      8.00122e-06      3.88668e-11      6.09035e-11      
                   6.17249e-11      3.31415e-11      6.09035e-11      
                   6.17249e-11      6.17249e-11      1.32845e-11      
                   2.42039e-11      2.54214e-11      9.90043e-11      
                   2.42039e-11      9.90043e-11      9.90043e-11      
                   6.08719e-11      6.08751e-11      3.86687e-11      
                   3.25009e-11      6.08751e-11      3.86687e-11      
                   6.08751e-11      2.46331e-11      2.44222e-11      
                   1.26817e-11      9.92024e-11      2.46331e-11      
                   9.92024e-11      9.92024e-11      9.90043e-11      
                   9.92024e-11      9.92024e-11      7.93741e-16      
                    27.000000         1.000000       
  1.93000e-07      8.00378e-06      3.87156e-11      6.13734e-11      
                   6.15662e-11      3.30146e-11      6.13734e-11      
                   6.15662e-11      6.15662e-11      1.32378e-11      
                   2.49323e-11      2.53692e-11      9.86348e-11      
                   2.49323e-11      9.86348e-11      9.86348e-11      
                   6.07048e-11      6.07363e-11      3.85270e-11      
                   3.23482e-11      6.07363e-11      3.85270e-11      
                   6.07363e-11      2.45773e-11      2.43755e-11      
                   1.26347e-11      9.88317e-11      2.45773e-11      
                   9.88317e-11      9.88317e-11      9.86348e-11      
                   9.88317e-11      9.88317e-11      7.91027e-16      
                    27.000000         1.000000       
  1.94000e-07      8.00632e-06      3.85705e-11      6.12195e-11      
                   6.14091e-11      3.28882e-11      6.12195e-11      
                   6.14091e-11      6.14091e-11      1.31913e-11      
                   2.48813e-11      2.53173e-11      9.82695e-11      
                   2.48813e-11      9.82695e-11      9.82695e-11      
                   6.05394e-11      6.06010e-11      3.83864e-11      
                   3.21958e-11      6.06010e-11      3.83864e-11      
                   6.06010e-11      2.45220e-11      2.43295e-11      
                   1.25934e-11      9.84650e-11      2.45220e-11      
                   9.84650e-11      9.84650e-11      9.82695e-11      
                   9.84650e-11      9.84650e-11      7.88342e-16      
                    27.000000         1.000000       
  1.95000e-07      8.00603e-06      3.84323e-11      6.10673e-11      
                   6.12539e-11      3.27623e-11      6.10673e-11      
                   6.12539e-11      6.12539e-11      1.31450e-11      
                   2.48308e-11      2.52659e-11      9.79082e-11      
                   2.48308e-11      9.79082e-11      9.79082e-11      
                   6.03759e-11      6.04674e-11      3.82471e-11      
                   3.20555e-11      6.04674e-11      3.82471e-11      
                   6.04674e-11      2.44673e-11      2.42840e-11      
                   1.25525e-11      9.80823e-11      2.44673e-11      
                   9.80823e-11      9.80823e-11      9.79082e-11      
                   9.80823e-11      9.80823e-11      7.85250e-16      
                    27.000000         1.000000       
  1.96000e-07      8.00594e-06      3.82957e-11      6.09167e-11      
                   6.11005e-11      3.26369e-11      6.09167e-11      
                   6.11005e-11      6.11005e-11      1.30988e-11      
                   2.47809e-11      2.52152e-11      9.75493e-11      
                   2.47809e-11      9.75493e-11      9.75493e-11      
                   6.02141e-11      6.03355e-11      3.81088e-11      
                   3.19495e-11      6.03355e-11      3.81088e-11      
                   6.03355e-11      2.44131e-11      2.42391e-11      
                   1.25119e-11      9.76909e-11      2.44131e-11      
                   9.76909e-11      9.76909e-11      9.75493e-11      
                   9.76909e-11      9.76909e-11      7.82107e-16      
                    27.000000         1.000000       
  1.97000e-07      8.00016e-06      3.81606e-11      6.01114e-11      
                   6.09489e-11      3.25119e-11      6.01114e-11      
                   6.09489e-11      6.09489e-11      1.30528e-11      
                   2.39482e-11      2.51650e-11      9.71930e-11      
                   2.39482e-11      9.71930e-11      9.71930e-11      
                   6.00540e-11      6.02052e-11      3.79717e-11      
                   3.18517e-11      6.02052e-11      3.79717e-11      
                   6.02052e-11      2.43595e-11      2.41948e-11      
                   1.24716e-11      9.73122e-11      2.43595e-11      
                   9.73122e-11      9.73122e-11      9.71930e-11      
                   9.73122e-11      9.73122e-11      7.78513e-16      
                    27.000000         1.000000       
  1.98000e-07      7.99922e-06      3.80270e-11      5.99510e-11      
                   6.07991e-11      3.23874e-11      5.99510e-11      
                   6.07991e-11      6.07991e-11      1.30070e-11      
                   2.38851e-11      2.51154e-11      9.68399e-11      
                   2.38851e-11      9.68399e-11      9.68399e-11      
                   5.98957e-11      6.00765e-11      3.78357e-11      
                   3.17544e-11      6.00765e-11      3.78357e-11      
                   6.00765e-11      2.43064e-11      2.41510e-11      
                   1.24316e-11      9.69374e-11      2.43064e-11      
                   9.69374e-11      9.69374e-11      9.68399e-11      
                   9.69374e-11      9.69374e-11      7.75424e-16      
                    27.000000         1.000000       
  1.99000e-07      7.99775e-06      3.78950e-11      5.99065e-11      
                   6.06509e-11      3.22634e-11      5.99065e-11      
                   6.06509e-11      6.06509e-11      1.29613e-11      
                   2.39754e-11      2.50664e-11      9.64905e-11      
                   2.39754e-11      9.64905e-11      9.64905e-11      
                   5.97390e-11      5.99493e-11      3.77006e-11      
                   3.16573e-11      5.99493e-11      3.77006e-11      
                   5.99493e-11      2.42537e-11      2.41078e-11      
                   1.23920e-11      9.65665e-11      2.42537e-11      
                   9.65665e-11      9.65665e-11      9.64905e-11      
                   9.65665e-11      9.65665e-11      7.72315e-16      
                    27.000000         1.000000       
  2.00000e-07      7.99835e-06      3.77645e-11      5.97321e-11      
                   6.05010e-11      3.21398e-11      5.97321e-11      
                   6.05010e-11      6.05010e-11      1.29157e-11      
                   2.38541e-11      2.50179e-11      9.61443e-11      
                   2.38541e-11      9.61443e-11      9.61443e-11      
                   5.95841e-11      5.98236e-11      3.75666e-11      
                   3.15607e-11      5.98236e-11      3.75666e-11      
                   5.98236e-11      2.42016e-11      2.40651e-11      
                   1.23526e-11      9.61994e-11      2.42016e-11      
                   9.61994e-11      9.61994e-11      9.61443e-11      
                   9.61994e-11      9.61994e-11      7.69437e-16      
                    27.000000         1.000000       
  2.01000e-07      7.99860e-06      3.76354e-11      5.96079e-11      
                   6.03524e-11      3.20167e-11      5.96079e-11      
                   6.03524e-11      6.03524e-11      1.28702e-11      
                   2.38465e-11      2.49700e-11      9.58013e-11      
                   2.38465e-11      9.58013e-11      9.58013e-11      
                   5.94307e-11      5.96995e-11      3.74335e-11      
                   3.14643e-11      5.96995e-11      3.74335e-11      
                   5.96995e-11      2.41513e-11      2.40230e-11      
                   1.23136e-11      9.58363e-11      2.41513e-11      
                   9.58363e-11      9.58363e-11      9.58013e-11      
                   9.58363e-11      9.58363e-11      7.66557e-16      
                    27.000000         1.000000       
  2.02000e-07      7.99753e-06      3.75077e-11      6.00455e-11      
                   6.02057e-11      3.18940e-11      6.00455e-11      
                   6.02057e-11      6.02057e-11      1.28249e-11      
                   2.44933e-11      2.49226e-11      9.54615e-11      
                   2.44933e-11      9.54615e-11      9.54615e-11      
                   5.92790e-11      5.95767e-11      3.73012e-11      
                   3.13683e-11      5.95767e-11      3.73012e-11      
                   5.95767e-11      2.41059e-11      2.39814e-11      
                   1.22748e-11      9.54771e-11      2.41059e-11      
                   9.54771e-11      9.54771e-11      9.54615e-11      
                   9.54771e-11      9.54771e-11      7.63581e-16      
                    27.000000         1.000000       
  2.03000e-07      7.99671e-06      3.73815e-11      5.99054e-11      
                   6.00608e-11      3.17718e-11      5.99054e-11      
                   6.00608e-11      6.00608e-11      1.27797e-11      
                   2.44472e-11      2.48758e-11      9.51247e-11      
                   2.44472e-11      9.51247e-11      9.51247e-11      
                   5.91289e-11      5.94554e-11      3.71698e-11      
                   3.12726e-11      5.94554e-11      3.71698e-11      
                   5.94554e-11      2.40611e-11      2.39403e-11      
                   1.22364e-11      9.51218e-11      2.40611e-11      
                   9.51218e-11      9.51218e-11      9.51247e-11      
                   9.51218e-11      9.51247e-11      7.60685e-16      
                    27.000000         1.000000       
  2.04000e-07      7.99542e-06      3.72567e-11      5.97667e-11      
                   5.99178e-11      3.16499e-11      5.97667e-11      
                   5.99178e-11      5.99178e-11      1.27346e-11      
                   2.44017e-11      2.48295e-11      9.47909e-11      
                   2.44017e-11      9.47909e-11      9.47909e-11      
                   5.89805e-11      5.93354e-11      3.70392e-11      
                   3.11772e-11      5.93354e-11      3.70392e-11      
                   5.93354e-11      2.40168e-11      2.38997e-11      
                   1.21982e-11      9.47706e-11      2.40168e-11      
                   9.47706e-11      9.47706e-11      9.47909e-11      
                   9.47706e-11      9.47909e-11      7.57893e-16      
                    27.000000         1.000000       
  2.05000e-07      7.99457e-06      3.71332e-11      5.96295e-11      
                   5.97765e-11      3.15285e-11      5.96295e-11      
                   5.97765e-11      5.97765e-11      1.26896e-11      
                   2.43566e-11      2.47837e-11      9.44600e-11      
                   2.43566e-11      9.44600e-11      9.44600e-11      
                   5.88340e-11      5.92168e-11      3.69094e-11      
                   3.10821e-11      5.92168e-11      3.69094e-11      
                   5.92168e-11      2.39730e-11      2.38596e-11      
                   1.21603e-11      9.44233e-11      2.39730e-11      
                   9.44233e-11      9.44233e-11      9.44600e-11      
                   9.44233e-11      9.44600e-11      7.55167e-16      
                    27.000000         1.000000       
  2.06000e-07      7.99098e-06      3.70111e-11      5.94936e-11      
                   5.96369e-11      3.14074e-11      5.94936e-11      
                   5.96369e-11      5.96369e-11      1.26447e-11      
                   2.43120e-11      2.47384e-11      9.41320e-11      
                   2.43120e-11      9.41320e-11      9.41320e-11      
                   5.86890e-11      5.90984e-11      3.67813e-11      
                   3.09874e-11      5.90984e-11      3.67813e-11      
                   5.90984e-11      2.39297e-11      2.38201e-11      
                   1.21291e-11      9.40799e-11      2.39297e-11      
                   9.40799e-11      9.40799e-11      9.41320e-11      
                   9.40799e-11      9.41320e-11      7.52207e-16      
                    27.000000         1.000000       
  2.07000e-07      7.99368e-06      3.68903e-11      5.93590e-11      
                   5.94990e-11      3.12868e-11      5.93590e-11      
                   5.94990e-11      5.94990e-11      1.25999e-11      
                   2.42679e-11      2.46936e-11      9.38067e-11      
                   2.42679e-11      9.38067e-11      9.38067e-11      
                   5.85455e-11      5.89718e-11      3.66528e-11      
                   3.08929e-11      5.89718e-11      3.66528e-11      
                   5.89718e-11      2.38868e-11      2.37810e-11      
                   1.20917e-11      9.37408e-11      2.38868e-11      
                   9.37408e-11      9.37408e-11      9.38067e-11      
                   9.37408e-11      9.38067e-11      7.49861e-16      
                    27.000000         1.000000       
  2.08000e-07      7.99347e-06      3.67709e-11      5.92258e-11      
                   5.93627e-11      3.11666e-11      5.92258e-11      
                   5.93627e-11      5.93627e-11      1.25552e-11      
                   2.42243e-11      2.46493e-11      9.34843e-11      
                   2.42243e-11      9.34843e-11      9.34843e-11      
                   5.84035e-11      5.88468e-11      3.65249e-11      
                   3.07986e-11      5.88468e-11      3.65249e-11      
                   5.88468e-11      2.38445e-11      2.37424e-11      
                   1.20545e-11      9.34057e-11      2.38445e-11      
                   9.34057e-11      9.34057e-11      9.34843e-11      
                   9.34057e-11      9.34843e-11      7.47263e-16      
                    27.000000         1.000000       
  2.09000e-07      7.99733e-06      3.66528e-11      5.90938e-11      
                   5.92281e-11      3.10467e-11      5.90938e-11      
                   5.92281e-11      5.92281e-11      1.25106e-11      
                   2.41812e-11      2.46055e-11      9.31645e-11      
                   2.41812e-11      9.31645e-11      9.31645e-11      
                   5.82630e-11      5.86133e-11      3.63976e-11      
                   3.07047e-11      5.86133e-11      3.63976e-11      
                   5.86133e-11      2.38026e-11      2.35917e-11      
                   1.20176e-11      9.30747e-11      2.38026e-11      
                   9.30747e-11      9.30747e-11      9.31645e-11      
                   9.30747e-11      9.31645e-11      7.45067e-16      
                    27.000000         1.000000       
  2.10000e-07      7.99705e-06      3.65360e-11      5.89632e-11      
                   5.90950e-11      3.09272e-11      5.89632e-11      
                   5.90950e-11      5.90950e-11      1.24660e-11      
                   2.41386e-11      2.45622e-11      9.28474e-11      
                   2.41386e-11      9.28474e-11      9.28474e-11      
                   5.81211e-11      5.79143e-11      3.62708e-11      
                   3.06110e-11      5.81211e-11      3.62708e-11      
                   5.81211e-11      2.37612e-11      2.33374e-11      
                   1.19810e-11      9.27478e-11      2.37612e-11      
                   9.27478e-11      9.27478e-11      9.28474e-11      
                   9.27478e-11      9.28474e-11      7.42506e-16      
                    27.000000         1.000000       
  2.11000e-07      7.99316e-06      3.64205e-11      5.88339e-11      
                   5.89634e-11      3.08086e-11      5.88339e-11      
                   5.89634e-11      5.89634e-11      1.24216e-11      
                   2.40964e-11      2.45193e-11      9.25325e-11      
                   2.40964e-11      9.25325e-11      9.25325e-11      
                   5.79830e-11      5.84806e-11      3.61444e-11      
                   3.05176e-11      5.84806e-11      3.61444e-11      
                   5.84806e-11      2.37203e-11      2.36291e-11      
                   1.19446e-11      9.24250e-11      2.37203e-11      
                   9.24250e-11      9.24250e-11      9.25325e-11      
                   9.24250e-11      9.25325e-11      7.39627e-16      
                    27.000000         1.000000       
  2.12000e-07      7.99310e-06      3.63062e-11      5.87060e-11      
                   5.88334e-11      3.06920e-11      5.87060e-11      
                   5.88334e-11      5.88334e-11      1.23772e-11      
                   2.40549e-11      2.44769e-11      9.22194e-11      
                   2.40549e-11      9.22194e-11      9.22194e-11      
                   5.78462e-11      5.83615e-11      3.60238e-11      
                   3.04245e-11      5.83615e-11      3.60238e-11      
                   5.83615e-11      2.36798e-11      2.35924e-11      
                   1.19085e-11      9.21063e-11      2.36798e-11      
                   9.21063e-11      9.21063e-11      9.22194e-11      
                   9.21063e-11      9.22194e-11      7.37119e-16      
                    27.000000         1.000000       
  2.13000e-07      7.99316e-06      3.61931e-11      5.85793e-11      
                   5.87048e-11      3.05762e-11      5.85793e-11      
                   5.87048e-11      5.87048e-11      1.23329e-11      
                   2.40139e-11      2.44350e-11      9.19091e-11      
                   2.40139e-11      9.19091e-11      9.19091e-11      
                   5.77108e-11      5.82437e-11      3.59058e-11      
                   3.03316e-11      5.82437e-11      3.59058e-11      
                   5.82437e-11      2.36398e-11      2.35561e-11      
                   1.18727e-11      9.17916e-11      2.36398e-11      
                   9.17916e-11      9.17916e-11      9.19091e-11      
                   9.17916e-11      9.19091e-11      7.34644e-16      
                    27.000000         1.000000       
  2.14000e-07      7.99339e-06      3.60812e-11      5.84539e-11      
                   5.85777e-11      3.04612e-11      5.84539e-11      
                   5.85777e-11      5.85777e-11      1.22886e-11      
                   2.39733e-11      2.43935e-11      9.16016e-11      
                   2.39733e-11      9.16016e-11      9.16016e-11      
                   5.75768e-11      5.81250e-11      3.57890e-11      
                   3.02389e-11      5.81250e-11      3.57890e-11      
                   5.81250e-11      2.36002e-11      2.35202e-11      
                   1.18371e-11      9.14808e-11      2.36002e-11      
                   9.14808e-11      9.14808e-11      9.16016e-11      
                   9.14808e-11      9.16016e-11      7.32207e-16      
                    27.000000         1.000000       
  2.15000e-07      7.99375e-06      3.59705e-11      5.83297e-11      
                   5.84519e-11      3.03470e-11      5.83297e-11      
                   5.84519e-11      5.84519e-11      1.22444e-11      
                   2.39331e-11      2.43525e-11      9.12969e-11      
                   2.39331e-11      9.12969e-11      9.12969e-11      
                   5.74510e-11      5.80047e-11      3.56733e-11      
                   3.01465e-11      5.80047e-11      3.56733e-11      
                   5.80047e-11      2.35611e-11      2.34848e-11      
                   1.18017e-11      9.11741e-11      2.35611e-11      
                   9.11741e-11      9.11741e-11      9.12969e-11      
                   9.11741e-11      9.12969e-11      7.29805e-16      
                    27.000000         1.000000       
  2.16000e-07      7.99389e-06      3.58609e-11      5.82067e-11      
                   5.83276e-11      3.02336e-11      5.82067e-11      
                   5.83276e-11      5.83276e-11      1.22003e-11      
                   2.38934e-11      2.43120e-11      9.09950e-11      
                   2.38934e-11      9.09950e-11      9.09950e-11      
                   5.73437e-11      5.78859e-11      3.55588e-11      
                   3.00543e-11      5.78859e-11      3.55588e-11      
                   5.78859e-11      2.35224e-11      2.34498e-11      
                   1.17667e-11      9.08712e-11      2.35224e-11      
                   9.08712e-11      9.08712e-11      9.09950e-11      
                   9.08712e-11      9.09950e-11      7.27404e-16      
                    27.000000         1.000000       
  2.17000e-07      7.99403e-06      3.57525e-11      5.80850e-11      
                   5.82046e-11      3.01210e-11      5.80850e-11      
                   5.82046e-11      5.82046e-11      1.21562e-11      
                   2.38541e-11      2.42718e-11      9.06959e-11      
                   2.38541e-11      9.06959e-11      9.06959e-11      
                   5.72375e-11      5.77687e-11      3.54455e-11      
                   2.99624e-11      5.77687e-11      3.54455e-11      
                   5.77687e-11      2.34841e-11      2.34152e-11      
                   1.17318e-11      9.05721e-11      2.34841e-11      
                   9.05721e-11      9.05721e-11      9.06959e-11      
                   9.05721e-11      9.06959e-11      7.25026e-16      
                    27.000000         1.000000       
  2.18000e-07      7.99429e-06      3.56452e-11      5.79644e-11      
                   5.80830e-11      3.00092e-11      5.79644e-11      
                   5.80830e-11      5.80830e-11      1.21121e-11      
                   2.38152e-11      2.42321e-11      9.03994e-11      
                   2.38152e-11      9.03994e-11      9.03994e-11      
                   5.71323e-11      5.76529e-11      3.53332e-11      
                   2.98706e-11      5.76529e-11      3.53332e-11      
                   5.76529e-11      2.34462e-11      2.33810e-11      
                   1.16972e-11      9.02768e-11      2.34462e-11      
                   9.02768e-11      9.02768e-11      9.03994e-11      
                   9.02768e-11      9.03994e-11      7.22679e-16      
                    27.000000         1.000000       
  2.19000e-07      7.99970e-06      3.55390e-11      5.78450e-11      
                   5.79626e-11      2.98981e-11      5.78450e-11      
                   5.79626e-11      5.79626e-11      1.20681e-11      
                   2.37767e-11      2.41928e-11      9.00975e-11      
                   2.37767e-11      9.00975e-11      9.00975e-11      
                   5.70283e-11      5.75387e-11      3.52222e-11      
                   2.93916e-11      5.75387e-11      3.52222e-11      
                   5.75387e-11      2.34088e-11      2.33473e-11      
                   1.16628e-11      9.00093e-11      2.34088e-11      
                   9.00093e-11      9.00093e-11      9.00975e-11      
                   9.00093e-11      9.00975e-11      7.20753e-16      
                    27.000000         1.000000       
  2.20000e-07      7.99578e-06      3.54338e-11      5.77268e-11      
                   5.78436e-11      2.97878e-11      5.77268e-11      
                   5.78436e-11      5.78436e-11      1.20240e-11      
                   2.37387e-11      2.41540e-11      8.98062e-11      
                   2.37387e-11      8.98062e-11      8.98062e-11      
                   5.69254e-11      5.74259e-11      3.51122e-11      
                   2.97822e-11      5.74259e-11      3.51122e-11      
                   5.74259e-11      2.33718e-11      2.33139e-11      
                   1.16287e-11      8.97813e-11      2.33718e-11      
                   8.97813e-11      8.97813e-11      8.98062e-11      
                   8.97813e-11      8.98062e-11      7.18071e-16      
                    27.000000         1.000000       
  2.21000e-07      7.99288e-06      3.53297e-11      5.76097e-11      
                   5.77258e-11      2.96782e-11      5.76097e-11      
                   5.77258e-11      5.77258e-11      1.19800e-11      
                   2.37011e-11      2.41155e-11      8.95172e-11      
                   2.37011e-11      8.95172e-11      8.95172e-11      
                   5.68236e-11      5.73145e-11      3.50032e-11      
                   2.93836e-11      5.73145e-11      3.50032e-11      
                   5.73145e-11      2.33352e-11      2.32810e-11      
                   1.15948e-11      8.91323e-11      2.33352e-11      
                   8.91323e-11      8.91323e-11      8.95172e-11      
                   8.91323e-11      8.95172e-11      7.15500e-16      
                    27.000000         1.000000       
  2.22000e-07      7.99771e-06      3.52265e-11      5.67367e-11      
                   5.76092e-11      2.95693e-11      5.67367e-11      
                   5.76092e-11      5.76092e-11      1.19360e-11      
                   2.29537e-11      2.40775e-11      8.92307e-11      
                   2.29537e-11      8.92307e-11      8.92307e-11      
                   5.67228e-11      5.72045e-11      3.48953e-11      
                   2.95043e-11      5.72045e-11      3.48953e-11      
                   5.72045e-11      2.32989e-11      2.32484e-11      
                   1.15612e-11      8.91294e-11      2.32989e-11      
                   8.91294e-11      8.91294e-11      8.92307e-11      
                   8.91294e-11      8.92307e-11      7.13641e-16      
                    27.000000         1.000000       
  2.23000e-07      7.99633e-06      3.51239e-11      5.66857e-11      
                   5.74939e-11      2.94611e-11      5.66857e-11      
                   5.74939e-11      5.74939e-11      1.18920e-11      
                   2.28957e-11      2.40399e-11      8.89468e-11      
                   2.28957e-11      8.89468e-11      8.89468e-11      
                   5.66230e-11      5.70959e-11      3.47884e-11      
                   2.94132e-11      5.70959e-11      3.47884e-11      
                   5.70959e-11      2.32631e-11      2.32163e-11      
                   1.15277e-11      8.88519e-11      2.32631e-11      
                   8.88519e-11      8.88519e-11      8.89468e-11      
                   8.88519e-11      8.89468e-11      7.11248e-16      
                    27.000000         1.000000       
  2.24000e-07      7.99588e-06      3.50224e-11      5.72652e-11      
                   5.73797e-11      2.93536e-11      5.72652e-11      
                   5.73797e-11      5.73797e-11      1.18480e-11      
                   2.35906e-11      2.40026e-11      8.86655e-11      
                   2.35906e-11      8.86655e-11      8.86655e-11      
                   5.65242e-11      5.69886e-11      3.46825e-11      
                   2.93221e-11      5.69886e-11      3.46825e-11      
                   5.69886e-11      2.32277e-11      2.31845e-11      
[...]
                   5.70442e-11      2.90661e-11      5.69306e-11      
                   5.70442e-11      5.70442e-11      1.17162e-11      
                   2.34835e-11      2.38933e-11      8.78365e-11      
                   2.34835e-11      8.78365e-11      8.78365e-11      
                   5.62336e-11      5.66742e-11      3.43708e-11      
                   2.90501e-11      5.66742e-11      3.43708e-11      
                   5.66742e-11      2.31237e-11      2.30913e-11      
                   1.13962e-11      8.77620e-11      2.31237e-11      
                   8.77620e-11      8.77620e-11      8.78365e-11      
                   8.77620e-11      8.78365e-11      7.02378e-16      
                    27.000000         1.000000       
  2.28000e-07      7.99714e-06      3.46259e-11      5.68212e-11      
                   5.69346e-11      2.89865e-11      5.68212e-11      
                   5.69346e-11      5.69346e-11      1.16722e-11      
                   2.34486e-11      2.38576e-11      8.75651e-11      
                   2.34486e-11      8.75651e-11      8.75651e-11      
                   5.61386e-11      5.65719e-11      3.42688e-11      
                   2.89597e-11      5.65719e-11      3.42688e-11      
                   5.65719e-11      2.30897e-11      2.30610e-11      
                   1.13638e-11      8.74985e-11      2.30897e-11      
                   8.74985e-11      8.74985e-11      8.75651e-11      
                   8.74985e-11      8.75651e-11      7.00270e-16      
                    27.000000         1.000000       
  2.29000e-07      7.99685e-06      3.45290e-11      5.67128e-11      
                   5.68261e-11      2.89076e-11      5.67128e-11      
                   5.68261e-11      5.68261e-11      1.16283e-11      
                   2.34141e-11      2.38223e-11      8.72907e-11      
                   2.34141e-11      8.72907e-11      8.72907e-11      
                   5.60446e-11      5.64707e-11      3.41678e-11      
                   2.88695e-11      5.64707e-11      3.41678e-11      
                   5.64707e-11      2.30562e-11      2.30310e-11      
                   1.13317e-11      8.72375e-11      2.30562e-11      
                   8.72375e-11      8.72375e-11      8.72907e-11      
                   8.72375e-11      8.72907e-11      6.98051e-16      
                    27.000000         1.000000       
  2.30000e-07      7.99705e-06      3.44331e-11      5.66055e-11      
                   5.67187e-11      2.88292e-11      5.66055e-11      
                   5.67187e-11      5.67187e-11      1.15843e-11      
                   2.33799e-11      2.37873e-11      8.70169e-11      
                   2.33799e-11      8.70169e-11      8.70169e-11      
                   5.59514e-11      5.63706e-11      3.40677e-11      
                   2.87794e-11      5.63706e-11      3.40677e-11      
                   5.63706e-11      2.30230e-11      2.30014e-11      
                   1.12997e-11      8.69789e-11      2.30230e-11      
                   8.69789e-11      8.69789e-11      8.70169e-11      
                   8.69789e-11      8.70169e-11      6.95879e-16      
                    27.000000         1.000000       
  2.31000e-07      7.99727e-06      3.43380e-11      5.64993e-11      
                   5.66123e-11      2.87513e-11      5.64993e-11      
                   5.66123e-11      5.66123e-11      1.15404e-11      
                   2.33460e-11      2.37527e-11      8.67480e-11      
                   2.33460e-11      8.67480e-11      8.67480e-11      
                   5.58591e-11      5.62716e-11      3.39685e-11      
                   2.86895e-11      5.62716e-11      3.39685e-11      
                   5.62716e-11      2.29901e-11      2.29721e-11      
                   1.12680e-11      8.67228e-11      2.29901e-11      
                   8.67228e-11      8.67228e-11      8.67480e-11      
                   8.67228e-11      8.67480e-11      6.93747e-16      
                    27.000000         1.000000       
  2.32000e-07      7.99769e-06      3.42438e-11      5.63941e-11      
                   5.65070e-11      2.86740e-11      5.63941e-11      
                   5.65070e-11      5.65070e-11      1.14964e-11      
                   2.33126e-11      2.37185e-11      8.64816e-11      
                   2.33126e-11      8.64816e-11      8.64816e-11      
                   5.57676e-11      5.61702e-11      3.38702e-11      
                   2.85997e-11      5.61702e-11      3.38702e-11      
                   5.61702e-11      2.29576e-11      2.29431e-11      
                   1.12365e-11      8.64690e-11      2.29576e-11      
                   8.64690e-11      8.64690e-11      8.64816e-11      
                   8.64690e-11      8.64816e-11      6.91653e-16      
                    27.000000         1.000000       
  2.33000e-07      7.99833e-06      3.41504e-11      5.62898e-11      
                   5.64027e-11      2.85965e-11      5.62898e-11      
                   5.64027e-11      5.64027e-11      1.14524e-11      
                   2.32794e-11      2.36846e-11      8.62175e-11      
                   2.32794e-11      8.62175e-11      8.62175e-11      
                   5.56771e-11      5.60648e-11      3.37728e-11      
                   2.85100e-11      5.60648e-11      3.37728e-11      
                   5.60648e-11      2.29255e-11      2.29145e-11      
                   1.12051e-11      8.62174e-11      2.29255e-11      
                   8.62174e-11      8.62174e-11      8.62175e-11      
                   8.62174e-11      8.62175e-11      6.89596e-16      
                    27.000000         1.000000       
  2.34000e-07      7.99906e-06      3.40578e-11      5.61866e-11      
                   5.62995e-11      2.85202e-11      5.61866e-11      
                   5.62995e-11      5.62995e-11      1.14083e-11      
                   2.32466e-11      2.36511e-11      8.59558e-11      
                   2.32466e-11      8.59558e-11      8.59558e-11      
                   5.55873e-11      5.59593e-11      3.36763e-11      
                   2.84205e-11      5.59593e-11      3.36763e-11      
                   5.59593e-11      2.28937e-11      2.28862e-11      
                   1.11740e-11      8.59681e-11      2.28937e-11      
                   8.59681e-11      8.59681e-11      8.59558e-11      
                   8.59681e-11      8.59681e-11      6.87664e-16      
                    27.000000         1.000000       
  2.35000e-07      7.99978e-06      3.39661e-11      5.60844e-11      
                   5.61972e-11      2.84445e-11      5.60844e-11      
                   5.61972e-11      5.61972e-11      1.13642e-11      
                   2.32142e-11      2.36179e-11      8.56964e-11      
                   2.32142e-11      8.56964e-11      8.56964e-11      
                   5.54984e-11      5.58555e-11      3.35806e-11      
                   2.83311e-11      5.58555e-11      3.35806e-11      
                   5.58555e-11      2.28622e-11      2.28582e-11      
                   1.11431e-11      8.57210e-11      2.28622e-11      
                   8.57210e-11      8.57210e-11      8.56964e-11      
                   8.57210e-11      8.57210e-11      6.85749e-16      
                    27.000000         1.000000       
  2.36000e-07      8.00047e-06      3.38751e-11      5.59831e-11      
                   5.60959e-11      2.83693e-11      5.59831e-11      
                   5.60959e-11      5.60959e-11      1.13201e-11      
                   2.31821e-11      2.35851e-11      8.54393e-11      
                   2.31821e-11      8.54393e-11      8.54393e-11      
                   5.54103e-11      5.57534e-11      3.34859e-11      
                   2.82418e-11      5.57534e-11      3.34859e-11      
                   5.57534e-11      2.28311e-11      2.28306e-11      
                   1.11123e-11      8.54761e-11      2.28311e-11      
                   8.54761e-11      8.54761e-11      8.54393e-11      
                   8.54761e-11      8.54761e-11      6.83848e-16      
                    27.000000         1.000000       
  2.37000e-07      8.00192e-06      3.37849e-11      5.58828e-11      
                   5.59956e-11      2.82946e-11      5.58828e-11      
                   5.59956e-11      5.59956e-11      1.12759e-11      
                   2.31503e-11      2.35526e-11      8.51845e-11      
                   2.31503e-11      8.51845e-11      8.51845e-11      
                   5.53230e-11      5.56528e-11      3.33919e-11      
                   2.81527e-11      5.56528e-11      3.33919e-11      
                   5.56528e-11      2.28003e-11      2.28032e-11      
                   1.10818e-11      8.52332e-11      2.28032e-11      
                   8.52332e-11      8.52332e-11      8.51845e-11      
                   8.52332e-11      8.52332e-11      6.82030e-16      
                    27.000000         1.000000       
  2.38000e-07      8.00181e-06      3.36955e-11      5.57835e-11      
                   5.58962e-11      2.82204e-11      5.57835e-11      
                   5.58962e-11      5.58962e-11      1.12317e-11      
                   2.31188e-11      2.35204e-11      8.49320e-11      
                   2.31188e-11      8.49320e-11      8.49320e-11      
                   5.52364e-11      5.55537e-11      3.32988e-11      
                   2.80636e-11      5.55537e-11      3.32988e-11      
                   5.55537e-11      2.27699e-11      2.27762e-11      
                   1.10514e-11      8.49924e-11      2.27762e-11      
                   8.49924e-11      8.49924e-11      8.49320e-11      
                   8.49924e-11      8.49924e-11      6.80093e-16      
                    27.000000         1.000000       
  2.39000e-07      8.00228e-06      3.36068e-11      5.54199e-11      
                   5.57978e-11      2.81467e-11      5.54199e-11      
                   5.57978e-11      5.57978e-11      1.11874e-11      
                   2.27621e-11      2.34886e-11      8.46817e-11      
                   2.27621e-11      8.46817e-11      8.46817e-11      
                   5.51507e-11      5.54562e-11      3.32066e-11      
                   2.79747e-11      5.54562e-11      3.32066e-11      
                   5.54562e-11      2.27397e-11      2.27495e-11      
                   1.10213e-11      8.47536e-11      2.27495e-11      
                   8.47536e-11      8.47536e-11      8.46817e-11      
                   8.47536e-11      8.47536e-11      6.78222e-16      
                    27.000000         1.000000       
  2.40000e-07      8.00309e-06      3.35188e-11      5.55877e-11      
                   5.57003e-11      2.80734e-11      5.55877e-11      
                   5.57003e-11      5.57003e-11      1.11431e-11      
                   2.30598e-11      2.34570e-11      8.44336e-11      
                   2.30598e-11      8.44336e-11      8.44336e-11      
                   5.50657e-11      5.53600e-11      3.31151e-11      
                   2.78859e-11      5.53600e-11      3.31151e-11      
                   5.53600e-11      2.27099e-11      2.27231e-11      
                   1.09913e-11      8.45167e-11      2.27231e-11      
                   8.45167e-11      8.45167e-11      8.44336e-11      
                   8.45167e-11      8.45167e-11      6.76394e-16      
                    27.000000         1.000000       
  2.41000e-07      7.99587e-06      3.34316e-11      5.54911e-11      
                   5.56037e-11      2.80007e-11      5.54911e-11      
                   5.56037e-11      5.56037e-11      1.11192e-11      
                   2.30323e-11      2.34258e-11      8.41877e-11      
                   2.30323e-11      8.41877e-11      8.41877e-11      
                   5.49814e-11      5.52652e-11      3.30245e-11      
                   2.77972e-11      5.52652e-11      3.30245e-11      
                   5.52652e-11      2.26804e-11      2.26969e-11      
                   1.09615e-11      8.42817e-11      2.26969e-11      
                   8.42817e-11      8.42817e-11      8.41877e-11      
                   8.42817e-11      8.42817e-11      6.73905e-16      
                    27.000000         1.000000       
  2.42000e-07      7.99632e-06      3.33450e-11      5.53956e-11      
                   5.55080e-11      2.79284e-11      5.53956e-11      
                   5.55080e-11      5.55080e-11      1.11032e-11      
                   2.30051e-11      2.33950e-11      8.39440e-11      
                   2.30051e-11      8.39440e-11      8.39440e-11      
                   5.48979e-11      5.51718e-11      3.29346e-11      
                   2.77086e-11      5.51718e-11      3.29346e-11      
                   5.51718e-11      2.26512e-11      2.26711e-11      
                   1.09319e-11      8.40486e-11      2.26711e-11      
                   8.40486e-11      8.40486e-11      8.39440e-11      
                   8.40486e-11      8.40486e-11      6.72080e-16      
                    27.000000         1.000000       
  2.43000e-07      7.99704e-06      3.32591e-11      5.53009e-11      
                   5.54132e-11      2.78566e-11      5.53009e-11      
                   5.54132e-11      5.54132e-11      1.10875e-11      
                   2.29782e-11      2.33644e-11      8.37024e-11      
                   2.29782e-11      8.37024e-11      8.37024e-11      
                   5.48151e-11      5.50796e-11      3.28455e-11      
                   2.76201e-11      5.50796e-11      3.28455e-11      
                   5.50796e-11      2.26223e-11      2.26455e-11      
                   1.09024e-11      8.38173e-11      2.26455e-11      
                   8.38173e-11      8.38173e-11      8.37024e-11      
                   8.38173e-11      8.38173e-11      6.70290e-16      
                    27.000000         1.000000       
  2.44000e-07      7.99847e-06      3.31739e-11      5.52071e-11      
                   5.53163e-11      2.77853e-11      5.52071e-11      
                   5.53163e-11      5.53163e-11      1.10719e-11      
                   2.29516e-11      2.33304e-11      8.34629e-11      
                   2.29516e-11      8.34629e-11      8.34629e-11      
                   5.47330e-11      5.49886e-11      3.27572e-11      
                   2.75317e-11      5.49886e-11      3.27572e-11      
                   5.49886e-11      2.25937e-11      2.26202e-11      
                   1.08732e-11      8.35878e-11      2.26202e-11      
                   8.35878e-11      8.35878e-11      8.34629e-11      
                   8.35878e-11      8.35878e-11      6.68575e-16      
                    27.000000         1.000000       
  2.45000e-07      7.99977e-06      3.30892e-11      5.51142e-11      
                   5.52233e-11      2.77144e-11      5.51142e-11      
                   5.52233e-11      5.52233e-11      1.10565e-11      
                   2.29252e-11      2.33004e-11      8.32254e-11      
                   2.29252e-11      8.32254e-11      8.32254e-11      
                   5.46497e-11      5.48989e-11      3.26697e-11      
                   2.74433e-11      5.48989e-11      3.26697e-11      
                   5.48989e-11      2.25655e-11      2.25952e-11      
                   1.08441e-11      8.33601e-11      2.25952e-11      
                   8.33601e-11      8.33601e-11      8.32254e-11      
                   8.33601e-11      8.33601e-11      6.66862e-16      
                    27.000000         1.000000       
  2.46000e-07      8.00827e-06      3.30052e-11      5.50222e-11      
                   5.51311e-11      2.76440e-11      5.50222e-11      
                   5.51311e-11      5.51311e-11      1.10413e-11      
                   2.28992e-11      2.32708e-11      8.29900e-11      
                   2.28992e-11      8.29900e-11      8.29900e-11      
                   5.45641e-11      5.48103e-11      3.25830e-11      
                   2.73551e-11      5.48103e-11      3.25830e-11      
                   5.48103e-11      2.25375e-11      2.25704e-11      
                   1.08152e-11      8.31340e-11      2.25704e-11      
                   8.31340e-11      8.31340e-11      8.29900e-11      
                   8.31340e-11      8.31340e-11      6.65760e-16      
                    27.000000         1.000000       
  2.47000e-07      8.00734e-06      3.29218e-11      5.49311e-11      
                   5.50398e-11      2.75740e-11      5.49311e-11      
                   5.50398e-11      5.50398e-11      1.10262e-11      
                   2.28735e-11      2.32414e-11      8.27567e-11      
                   2.28735e-11      8.27567e-11      8.27567e-11      
                   5.44793e-11      5.47228e-11      3.24970e-11      
                   2.72670e-11      5.47228e-11      3.24970e-11      
                   5.47228e-11      2.25098e-11      2.25460e-11      
                   1.07864e-11      8.29097e-11      2.25460e-11      
                   8.29097e-11      8.29097e-11      8.27567e-11      
                   8.29097e-11      8.29097e-11      6.63886e-16      
                    27.000000         1.000000       
  2.48000e-07      8.00800e-06      3.28368e-11      5.48408e-11      
                   5.49493e-11      2.75045e-11      5.48408e-11      
                   5.49493e-11      5.49493e-11      1.10010e-11      
                   2.28481e-11      2.32123e-11      8.25254e-11      
                   2.28481e-11      8.25254e-11      8.25254e-11      
                   5.43953e-11      5.46364e-11      3.24118e-11      
                   2.71789e-11      5.46364e-11      3.24118e-11      
                   5.46364e-11      2.24824e-11      2.25217e-11      
                   1.07578e-11      8.26870e-11      2.25217e-11      
                   8.26870e-11      8.26870e-11      8.25254e-11      
                   8.26870e-11      8.26870e-11      6.62158e-16      
                    27.000000         1.000000       
  2.49000e-07      8.00867e-06      3.27511e-11      5.47514e-11      
                   5.48596e-11      2.74354e-11      5.47514e-11      
                   5.48596e-11      5.48596e-11      1.09687e-11      
                   2.28229e-11      2.31836e-11      8.22969e-11      
                   2.28229e-11      8.22969e-11      8.22969e-11      
                   5.43121e-11      5.45510e-11      3.23273e-11      
                   2.70909e-11      5.45510e-11      3.23273e-11      
                   5.45510e-11      2.24553e-11      2.24978e-11      
                   1.07294e-11      8.24659e-11      2.24978e-11      
                   8.24659e-11      8.24659e-11      8.22969e-11      
                   8.24659e-11      8.24659e-11      6.60442e-16      
                    27.000000         1.000000       
  2.50000e-07      8.00931e-06      3.26660e-11      5.46628e-11      
                   5.47707e-11      2.73667e-11      5.46628e-11      
                   5.47707e-11      5.47707e-11      1.09367e-11      
                   2.27981e-11      2.31551e-11      8.20710e-11      
                   2.27981e-11      8.20710e-11      8.20710e-11      
                   5.42297e-11      5.44667e-11      3.22435e-11      
                   2.70030e-11      5.44667e-11      3.22435e-11      
                   5.44667e-11      2.24285e-11      2.24741e-11      
                   1.07012e-11      8.22464e-11      2.24741e-11      
                   8.22464e-11      8.22464e-11      8.20710e-11      
                   8.22464e-11      8.22464e-11      6.58736e-16      
                    27.000000         1.000000       
