$DATA1 SOURCE='HSPICE' VERSION='A-2008.03 32-BIT'
.TITLE 'title'
 k1               average_power    tda_f_xor1       tda_r_xor2        
                  tda_r_xor3       tda_f_xor4       tda_xor1          
                  tda_xor2         tda_xor          tda_r_xnor1       
                  tda_f_xnor2      tda_f_xnor3      tda_r_xnor4       
                  tda_xnor1        tda_xnor2        tda_xnor          
                  tdb_r_xor1       tdb_r_xor2       tdb_f_xor3        
                  tdb_f_xor4       tdb_xor1         tdb_xor2          
                  tdb_xor          tdb_f_xnor1      tdb_f_xnor2       
                  tdb_r_xnor3      tdb_r_xnor4      tdb_xnor1         
                  tdb_xnor2        tdb_xnor         tda               
                  tdb              td               pdp               
                  temper           alter#            
    2.500000       7.91957e-06      5.43853e-11      4.27306e-11      
                   3.90782e-11      2.08849e-11      5.43853e-11      
                   3.90782e-11      5.43853e-11      1.42339e-11      
                   2.95820e-11      2.15025e-11      9.16967e-11      
                   2.95820e-11      9.16967e-11      9.16967e-11      
                   4.18993e-11      3.93214e-11      5.19811e-11      
                   2.07032e-11      4.18993e-11      5.19811e-11      
                   5.19811e-11      2.92957e-11      2.10089e-11      
                   1.15886e-11      9.05914e-11      2.92957e-11      
                   9.05914e-11      9.05914e-11      9.16967e-11      
                   9.05914e-11      9.16967e-11      7.26198e-16      
                    27.000000         1.000000       
    2.510000       7.92882e-06      5.44115e-11      4.26149e-11      
                   3.90802e-11      2.08578e-11      5.44115e-11      
                   3.90802e-11      5.44115e-11      1.42349e-11      
                   2.95832e-11      2.15027e-11      9.16632e-11      
                   2.95832e-11      9.16632e-11      9.16632e-11      
                   4.17912e-11      3.93266e-11      5.19893e-11      
                   2.04989e-11      4.17912e-11      5.19893e-11      
                   5.19893e-11      2.92955e-11      2.10098e-11      
                   1.15881e-11      9.06166e-11      2.92955e-11      
                   9.06166e-11      9.06166e-11      9.16632e-11      
                   9.06166e-11      9.16632e-11      7.26781e-16      
                    27.000000         1.000000       
    2.520000       7.92878e-06      5.44377e-11      4.24998e-11      
                   3.90821e-11      2.08308e-11      5.44377e-11      
                   3.90821e-11      5.44377e-11      1.42358e-11      
                   2.95844e-11      2.15029e-11      9.16299e-11      
                   2.95844e-11      9.16299e-11      9.16299e-11      
                   4.16839e-11      3.93318e-11      5.19974e-11      
                   2.04520e-11      4.16839e-11      5.19974e-11      
                   5.19974e-11      2.92953e-11      2.10107e-11      
                   1.15877e-11      9.05761e-11      2.92953e-11      
                   9.05761e-11      9.05761e-11      9.16299e-11      
                   9.05761e-11      9.16299e-11      7.26513e-16      
                    27.000000         1.000000       
    2.530000       7.92876e-06      5.44639e-11      4.23854e-11      
                   3.90841e-11      2.08039e-11      5.44639e-11      
                   3.90841e-11      5.44639e-11      1.42368e-11      
                   2.95855e-11      2.15031e-11      9.15966e-11      
                   2.95855e-11      9.15966e-11      9.15966e-11      
                   4.15774e-11      3.93370e-11      5.20055e-11      
                   2.04051e-11      4.15774e-11      5.20055e-11      
                   5.20055e-11      2.92951e-11      2.10116e-11      
                   1.15873e-11      9.05357e-11      2.92951e-11      
                   9.05357e-11      9.05357e-11      9.15966e-11      
                   9.05357e-11      9.15966e-11      7.26247e-16      
                    27.000000         1.000000       
    2.540000       7.92875e-06      5.44901e-11      4.22716e-11      
                   3.90861e-11      2.07771e-11      5.44901e-11      
                   3.90861e-11      5.44901e-11      1.42377e-11      
                   2.95867e-11      2.15033e-11      9.15634e-11      
                   2.95867e-11      9.15634e-11      9.15634e-11      
                   4.14716e-11      3.93422e-11      5.20137e-11      
                   2.03583e-11      4.14716e-11      5.20137e-11      
                   5.20137e-11      2.92948e-11      2.10125e-11      
                   1.15868e-11      9.04955e-11      2.92948e-11      
                   9.04955e-11      9.04955e-11      9.15634e-11      
                   9.04955e-11      9.15634e-11      7.25984e-16      
                    27.000000         1.000000       
    2.550000       7.92874e-06      5.45162e-11      4.21583e-11      
                   3.90881e-11      2.07488e-11      5.45162e-11      
                   3.90881e-11      5.45162e-11      1.42387e-11      
                   2.95879e-11      2.15035e-11      9.15313e-11      
                   2.95879e-11      9.15313e-11      9.15313e-11      
                   4.13666e-11      3.93474e-11      5.20218e-11      
                   2.03114e-11      4.13666e-11      5.20218e-11      
                   5.20218e-11      2.92946e-11      2.10134e-11      
                   1.15864e-11      9.04555e-11      2.92946e-11      
                   9.04555e-11      9.04555e-11      9.15313e-11      
                   9.04555e-11      9.15313e-11      7.25728e-16      
                    27.000000         1.000000       
    2.560000       7.92879e-06      5.45423e-11      4.20457e-11      
                   3.90901e-11      2.07221e-11      5.45423e-11      
                   3.90901e-11      5.45423e-11      1.42397e-11      
                   2.95891e-11      2.15037e-11      9.14984e-11      
                   2.95891e-11      9.14984e-11      9.14984e-11      
                   4.12622e-11      3.93527e-11      5.20299e-11      
                   2.02646e-11      4.12622e-11      5.20299e-11      
                   5.20299e-11      2.92944e-11      2.10143e-11      
                   1.15860e-11      9.04156e-11      2.92944e-11      
                   9.04156e-11      9.04156e-11      9.14984e-11      
                   9.04156e-11      9.14984e-11      7.25472e-16      
                    27.000000         1.000000       
    2.570000       7.92890e-06      5.45684e-11      4.19337e-11      
                   3.90921e-11      2.06954e-11      5.45684e-11      
                   3.90921e-11      5.45684e-11      1.42406e-11      
                   2.95903e-11      2.15040e-11      9.14656e-11      
                   2.95903e-11      9.14656e-11      9.14656e-11      
                   4.11586e-11      3.93579e-11      5.20381e-11      
                   2.02178e-11      4.11586e-11      5.20381e-11      
                   5.20381e-11      2.92942e-11      2.10152e-11      
                   1.15855e-11      9.03759e-11      2.92942e-11      
                   9.03759e-11      9.03759e-11      9.14656e-11      
                   9.03759e-11      9.14656e-11      7.25221e-16      
                    27.000000         1.000000       
    2.580000       7.92886e-06      5.45944e-11      4.18222e-11      
                   3.90941e-11      2.06688e-11      5.45944e-11      
                   3.90941e-11      5.45944e-11      1.42416e-11      
                   2.95915e-11      2.15042e-11      9.14329e-11      
                   2.95915e-11      9.14329e-11      9.14329e-11      
                   4.10557e-11      3.93631e-11      5.20462e-11      
                   2.01710e-11      4.10557e-11      5.20462e-11      
                   5.20462e-11      2.92940e-11      2.10161e-11      
                   1.15851e-11      9.03363e-11      2.92940e-11      
                   9.03363e-11      9.03363e-11      9.14329e-11      
                   9.03363e-11      9.14329e-11      7.24959e-16      
                    27.000000         1.000000       
    2.590000       7.92872e-06      5.46204e-11      4.17113e-11      
                   3.90960e-11      2.06422e-11      5.46204e-11      
                   3.90960e-11      5.46204e-11      1.42425e-11      
                   2.95927e-11      2.15044e-11      9.14003e-11      
                   2.95927e-11      9.14003e-11      9.14003e-11      
                   4.09534e-11      3.93683e-11      5.20543e-11      
                   2.01243e-11      4.09534e-11      5.20543e-11      
                   5.20543e-11      2.92937e-11      2.10170e-11      
                   1.15847e-11      9.02968e-11      2.92937e-11      
                   9.02968e-11      9.02968e-11      9.14003e-11      
                   9.02968e-11      9.14003e-11      7.24687e-16      
                    27.000000         1.000000       
    2.600000       7.92856e-06      5.46464e-11      4.16009e-11      
                   3.90980e-11      2.06157e-11      5.46464e-11      
                   3.90980e-11      5.46464e-11      1.42435e-11      
                   2.95938e-11      2.15046e-11      9.13678e-11      
                   2.95938e-11      9.13678e-11      9.13678e-11      
                   4.08519e-11      3.93735e-11      5.20624e-11      
                   2.00775e-11      4.08519e-11      5.20624e-11      
                   5.20624e-11      2.92935e-11      2.10179e-11      
                   1.15842e-11      9.02575e-11      2.92935e-11      
                   9.02575e-11      9.02575e-11      9.13678e-11      
                   9.02575e-11      9.13678e-11      7.24415e-16      
                    27.000000         1.000000       
    2.610000       7.92841e-06      5.46724e-11      4.14911e-11      
                   3.91000e-11      2.05893e-11      5.46724e-11      
                   3.91000e-11      5.46724e-11      1.42444e-11      
                   2.95950e-11      2.15048e-11      9.13354e-11      
                   2.95950e-11      9.13354e-11      9.13354e-11      
                   4.07509e-11      3.93787e-11      5.20706e-11      
                   2.00308e-11      4.07509e-11      5.20706e-11      
                   5.20706e-11      2.92933e-11      2.10188e-11      
                   1.15838e-11      9.02184e-11      2.92933e-11      
                   9.02184e-11      9.02184e-11      9.13354e-11      
                   9.02184e-11      9.13354e-11      7.24145e-16      
                    27.000000         1.000000       
    2.620000       7.92689e-06      5.46984e-11      4.13819e-11      
                   3.91020e-11      2.05629e-11      5.46984e-11      
                   3.91020e-11      5.46984e-11      1.42454e-11      
                   2.95962e-11      2.15050e-11      9.13031e-11      
                   2.95962e-11      9.13031e-11      9.13031e-11      
                   4.06506e-11      3.93840e-11      5.20787e-11      
                   1.98434e-11      4.06506e-11      5.20787e-11      
                   5.20787e-11      2.92930e-11      2.10197e-11      
                   1.15834e-11      8.99187e-11      2.92930e-11      
                   8.99187e-11      8.99187e-11      9.13031e-11      
                   8.99187e-11      9.13031e-11      7.23750e-16      
                    27.000000         1.000000       
    2.630000       7.92659e-06      5.47243e-11      4.12732e-11      
                   3.91039e-11      2.05366e-11      5.47243e-11      
                   3.91039e-11      5.47243e-11      1.42463e-11      
                   2.95974e-11      2.15052e-11      9.12709e-11      
                   2.95974e-11      9.12709e-11      9.12709e-11      
                   4.05510e-11      3.93892e-11      5.20868e-11      
                   1.97900e-11      4.05510e-11      5.20868e-11      
                   5.20868e-11      2.92928e-11      2.10206e-11      
                   1.15829e-11      8.98333e-11      2.92928e-11      
                   8.98333e-11      8.98333e-11      9.12709e-11      
                   8.98333e-11      9.12709e-11      7.23468e-16      
                    27.000000         1.000000       
    2.640000       7.92762e-06      5.47502e-11      4.11650e-11      
                   3.91059e-11      2.05103e-11      5.47502e-11      
                   3.91059e-11      5.47502e-11      1.42473e-11      
                   2.95985e-11      2.15055e-11      9.12389e-11      
                   2.95985e-11      9.12389e-11      9.12389e-11      
                   4.04520e-11      3.93944e-11      5.20949e-11      
                   1.97247e-11      4.04520e-11      5.20949e-11      
                   5.20949e-11      2.92926e-11      2.10215e-11      
                   1.15825e-11      8.97651e-11      2.92926e-11      
                   8.97651e-11      8.97651e-11      9.12389e-11      
                   8.97651e-11      9.12389e-11      7.23307e-16      
                    27.000000         1.000000       
    2.650000       7.91828e-06      5.47761e-11      4.10580e-11      
                   3.91079e-11      2.04841e-11      5.47761e-11      
                   3.91079e-11      5.47761e-11      1.42482e-11      
                   2.95997e-11      2.15057e-11      9.12069e-11      
                   2.95997e-11      9.12069e-11      9.12069e-11      
                   4.03536e-11      3.93996e-11      5.21031e-11      
                   2.02176e-11      4.03536e-11      5.21031e-11      
                   5.21031e-11      2.92923e-11      2.10224e-11      
                   1.15821e-11      9.00103e-11      2.92923e-11      
                   9.00103e-11      9.00103e-11      9.12069e-11      
                   9.00103e-11      9.12069e-11      7.22202e-16      
                    27.000000         1.000000       
    2.660000       7.92106e-06      5.48020e-11      4.09598e-11      
                   3.91099e-11      2.04580e-11      5.48020e-11      
                   3.91099e-11      5.48020e-11      1.42492e-11      
                   2.96009e-11      2.15059e-11      9.11751e-11      
                   2.96009e-11      9.11751e-11      9.11751e-11      
                   4.02557e-11      3.94049e-11      5.21112e-11      
                   1.99543e-11      4.02557e-11      5.21112e-11      
                   5.21112e-11      2.92921e-11      2.10233e-11      
                   1.15817e-11      8.99762e-11      2.92921e-11      
                   8.99762e-11      8.99762e-11      9.11751e-11      
                   8.99762e-11      9.11751e-11      7.22203e-16      
                    27.000000         1.000000       
    2.670000       7.92764e-06      5.48278e-11      4.08623e-11      
                   3.91118e-11      2.04319e-11      5.48278e-11      
                   3.91118e-11      5.48278e-11      1.42501e-11      
                   2.96021e-11      2.15061e-11      9.11433e-11      
                   2.96021e-11      9.11433e-11      9.11433e-11      
                   4.01585e-11      3.94101e-11      5.21193e-11      
                   1.98396e-11      4.01585e-11      5.21193e-11      
                   5.21193e-11      2.92919e-11      2.10242e-11      
                   1.15812e-11      8.99853e-11      2.92919e-11      
                   8.99853e-11      8.99853e-11      9.11433e-11      
                   8.99853e-11      9.11433e-11      7.22551e-16      
                    27.000000         1.000000       
    2.680000       7.92754e-06      5.48536e-11      4.07656e-11      
                   3.91138e-11      2.04060e-11      5.48536e-11      
                   3.91138e-11      5.48536e-11      1.42510e-11      
                   2.96032e-11      2.15063e-11      9.11117e-11      
                   2.96032e-11      9.11117e-11      9.11117e-11      
                   4.00619e-11      3.94153e-11      5.21274e-11      
                   1.98106e-11      4.00619e-11      5.21274e-11      
                   5.21274e-11      2.92916e-11      2.10251e-11      
                   1.15808e-11      8.99481e-11      2.92916e-11      
                   8.99481e-11      8.99481e-11      9.11117e-11      
                   8.99481e-11      9.11117e-11      7.22292e-16      
                    27.000000         1.000000       
    2.690000       7.92744e-06      5.48794e-11      4.06695e-11      
                   3.91158e-11      2.03800e-11      5.48794e-11      
                   3.91158e-11      5.48794e-11      1.42520e-11      
                   2.96044e-11      2.15065e-11      9.10801e-11      
                   2.96044e-11      9.10801e-11      9.10801e-11      
                   3.99658e-11      3.94205e-11      5.21355e-11      
                   1.97800e-11      3.99658e-11      5.21355e-11      
                   5.21355e-11      2.92914e-11      2.10261e-11      
                   1.15804e-11      8.99100e-11      2.92914e-11      
                   8.99100e-11      8.99100e-11      9.10801e-11      
                   8.99100e-11      9.10801e-11      7.22033e-16      
                    27.000000         1.000000       
    2.700000       7.92735e-06      5.49052e-11      4.05741e-11      
                   3.91177e-11      2.03541e-11      5.49052e-11      
                   3.91177e-11      5.49052e-11      1.42529e-11      
                   2.96056e-11      2.15068e-11      9.10487e-11      
                   2.96056e-11      9.10487e-11      9.10487e-11      
                   3.98703e-11      3.94257e-11      5.21437e-11      
                   1.97495e-11      3.98703e-11      5.21437e-11      
                   5.21437e-11      2.92911e-11      2.10270e-11      
                   1.15799e-11      8.98721e-11      2.92911e-11      
                   8.98721e-11      8.98721e-11      9.10487e-11      
                   8.98721e-11      9.10487e-11      7.21775e-16      
                    27.000000         1.000000       
