$DATA1 SOURCE='HSPICE' VERSION='A-2008.03 32-BIT'
.TITLE 'title'
 wmin             average_power    tda_f_xor1       tda_r_xor2        
                  tda_r_xor3       tda_f_xor4       tda_xor1          
                  tda_xor2         tda_xor          tda_r_xnor1       
                  tda_f_xnor2      tda_f_xnor3      tda_r_xnor4       
                  tda_xnor1        tda_xnor2        tda_xnor          
                  tdb_r_xor1       tdb_r_xor2       tdb_f_xor3        
                  tdb_f_xor4       tdb_xor1         tdb_xor2          
                  tdb_xor          tdb_f_xnor1      tdb_f_xnor2       
                  tdb_r_xnor3      tdb_r_xnor4      tdb_xnor1         
                  tdb_xnor2        tdb_xnor         tda               
                  tdb              td               pdp               
                  temper           alter#            
  1.30000e-07      8.12920e-06      5.19091e-11      7.59435e-11      
                   7.69394e-11      4.42090e-11      7.59435e-11      
                   7.69394e-11      7.69394e-11      1.79576e-11      
                   2.91326e-11      3.04450e-11      1.34185e-10      
                   2.91326e-11      1.34185e-10      1.34185e-10      
                   7.61806e-11      7.63112e-11      5.18671e-11      
                   4.38133e-11      7.63112e-11      5.18671e-11      
                   7.63112e-11      2.97062e-11      2.93200e-11      
                   1.76117e-11      1.34309e-10      2.97062e-11      
                   1.34309e-10      1.34309e-10      1.34185e-10      
                   1.34309e-10      1.34309e-10      1.09182e-15      
                    27.000000         1.000000       
  1.31000e-07      8.14352e-06      5.15923e-11      7.64268e-11      
                   7.65551e-11      4.39415e-11      7.64268e-11      
                   7.65551e-11      7.65551e-11      1.78486e-11      
                   2.98032e-11      3.03139e-11      1.33339e-10      
                   2.98032e-11      1.33339e-10      1.33339e-10      
                   7.57950e-11      7.59569e-11      5.15598e-11      
                   4.33359e-11      7.59569e-11      5.15598e-11      
                   7.59569e-11      2.95868e-11      2.92014e-11      
                   1.75092e-11      1.33234e-10      2.95868e-11      
                   1.33234e-10      1.33234e-10      1.33339e-10      
                   1.33234e-10      1.33339e-10      1.08585e-15      
                    27.000000         1.000000       
  1.32000e-07      8.12579e-06      5.12795e-11      7.60500e-11      
                   7.61764e-11      4.36758e-11      7.60500e-11      
                   7.61764e-11      7.61764e-11      1.77404e-11      
                   2.96856e-11      3.01845e-11      1.32507e-10      
                   2.96856e-11      1.32507e-10      1.32507e-10      
                   7.54167e-11      7.56074e-11      5.12568e-11      
                   4.32038e-11      7.56074e-11      5.12568e-11      
                   7.56074e-11      2.94692e-11      2.90847e-11      
                   1.74077e-11      1.32667e-10      2.94692e-11      
                   1.32667e-10      1.32667e-10      1.32507e-10      
                   1.32667e-10      1.32667e-10      1.07803e-15      
                    27.000000         1.000000       
  1.33000e-07      8.12579e-06      5.09706e-11      7.56794e-11      
                   7.58033e-11      4.34118e-11      7.56794e-11      
                   7.58033e-11      7.58033e-11      1.76328e-11      
                   2.95698e-11      3.00570e-11      1.31687e-10      
                   2.95698e-11      1.31687e-10      1.31687e-10      
                   7.50450e-11      7.52626e-11      5.09580e-11      
                   4.28984e-11      7.52626e-11      5.09580e-11      
                   7.52626e-11      2.93534e-11      2.89698e-11      
                   1.73073e-11      1.31868e-10      2.93534e-11      
                   1.31868e-10      1.31868e-10      1.31687e-10      
                   1.31868e-10      1.31868e-10      1.07153e-15      
                    27.000000         1.000000       
  1.34000e-07      8.12488e-06      5.06654e-11      7.53148e-11      
                   7.54357e-11      4.31495e-11      7.53148e-11      
                   7.54357e-11      7.54357e-11      1.75259e-11      
                   2.94559e-11      2.99311e-11      1.30881e-10      
                   2.94559e-11      1.30881e-10      1.30881e-10      
                   7.46800e-11      7.49223e-11      5.06630e-11      
                   4.25938e-11      7.49223e-11      5.06630e-11      
                   7.49223e-11      2.92392e-11      2.88566e-11      
                   1.72078e-11      1.31084e-10      2.92392e-11      
                   1.31084e-10      1.31084e-10      1.30881e-10      
                   1.31084e-10      1.31084e-10      1.06504e-15      
                    27.000000         1.000000       
  1.35000e-07      8.12283e-06      5.03638e-11      7.49560e-11      
                   7.50736e-11      4.28889e-11      7.49560e-11      
                   7.50736e-11      7.50736e-11      1.74196e-11      
                   2.93437e-11      2.98070e-11      1.30087e-10      
                   2.93437e-11      1.30087e-10      1.30087e-10      
                   7.43214e-11      7.45863e-11      5.03701e-11      
                   4.22901e-11      7.45863e-11      5.03701e-11      
                   7.45863e-11      2.91268e-11      2.87449e-11      
                   1.71094e-11      1.30313e-10      2.91268e-11      
                   1.30313e-10      1.30313e-10      1.30087e-10      
                   1.30313e-10      1.30313e-10      1.05851e-15      
                    27.000000         1.000000       
  1.36000e-07      8.12161e-06      5.00277e-11      7.46008e-11      
                   7.47169e-11      4.26299e-11      7.46008e-11      
                   7.47169e-11      7.47169e-11      1.72307e-11      
                   2.92332e-11      2.96845e-11      1.29306e-10      
                   2.92332e-11      1.29306e-10      1.29306e-10      
                   7.39691e-11      7.42548e-11      5.00787e-11      
                   4.19872e-11      7.42548e-11      5.00787e-11      
                   7.42548e-11      2.90160e-11      2.86350e-11      
                   1.70120e-11      1.29556e-10      2.90160e-11      
                   1.29556e-10      1.29556e-10      1.29306e-10      
                   1.29556e-10      1.29556e-10      1.05220e-15      
                    27.000000         1.000000       
  1.37000e-07      8.11959e-06      4.97841e-11      7.42516e-11      
                   7.43657e-11      4.23725e-11      7.42516e-11      
                   7.43657e-11      7.43657e-11      1.72090e-11      
                   2.91244e-11      2.95636e-11      1.28537e-10      
                   2.91244e-11      1.28537e-10      1.28537e-10      
                   7.36229e-11      7.39265e-11      4.97910e-11      
                   4.16851e-11      7.39265e-11      4.97910e-11      
                   7.39265e-11      2.89068e-11      2.85267e-11      
                   1.69155e-11      1.28811e-10      2.89068e-11      
                   1.28811e-10      1.28811e-10      1.28537e-10      
                   1.28811e-10      1.28811e-10      1.04589e-15      
                    27.000000         1.000000       
  1.38000e-07      8.11856e-06      4.95031e-11      7.39082e-11      
                   7.40197e-11      4.21166e-11      7.39082e-11      
                   7.40197e-11      7.40197e-11      1.71045e-11      
                   2.90173e-11      2.94443e-11      1.27779e-10      
                   2.90173e-11      1.27779e-10      1.27779e-10      
                   7.32826e-11      7.32743e-11      4.95068e-11      
                   4.14522e-11      7.32826e-11      4.95068e-11      
                   7.32826e-11      2.87992e-11      2.80573e-11      
                   1.68199e-11      1.28078e-10      2.87992e-11      
                   1.28078e-10      1.28078e-10      1.27779e-10      
                   1.28078e-10      1.28078e-10      1.03981e-15      
                    27.000000         1.000000       
  1.39000e-07      8.10843e-06      4.92267e-11      7.34010e-11      
                   7.36791e-11      4.18622e-11      7.34010e-11      
                   7.36791e-11      7.36791e-11      1.70007e-11      
                   2.88070e-11      2.93266e-11      1.27033e-10      
                   2.88070e-11      1.27033e-10      1.27033e-10      
                   7.29480e-11      7.32778e-11      4.93379e-11      
                   4.12659e-11      7.32778e-11      4.93379e-11      
                   7.32778e-11      2.86932e-11      2.83147e-11      
                   1.66079e-11      1.27355e-10      2.86932e-11      
                   1.27355e-10      1.27355e-10      1.27033e-10      
                   1.27355e-10      1.27355e-10      1.03265e-15      
                    27.000000         1.000000       
  1.40000e-07      8.11258e-06      4.89546e-11      7.32379e-11      
                   7.33436e-11      4.16093e-11      7.32379e-11      
                   7.33436e-11      7.33436e-11      1.68975e-11      
                   2.88079e-11      2.92103e-11      1.26298e-10      
                   2.88079e-11      1.26298e-10      1.26298e-10      
                   7.26189e-11      7.29602e-11      4.88601e-11      
                   4.10809e-11      7.29602e-11      4.88601e-11      
                   7.29602e-11      2.85887e-11      2.82110e-11      
                   1.64340e-11      1.26642e-10      2.85887e-11      
                   1.26642e-10      1.26642e-10      1.26298e-10      
                   1.26642e-10      1.26642e-10      1.02739e-15      
                    27.000000         1.000000       
  1.41000e-07      8.10208e-06      4.86869e-11      7.29109e-11      
                   7.30132e-11      4.13579e-11      7.29109e-11      
                   7.30132e-11      7.30132e-11      1.67948e-11      
                   2.87056e-11      2.90955e-11      1.25574e-10      
                   2.87056e-11      1.25574e-10      1.25574e-10      
                   7.22953e-11      7.26470e-11      4.86739e-11      
                   4.08970e-11      7.26470e-11      4.86739e-11      
                   7.26470e-11      2.84857e-11      2.81088e-11      
                   1.65386e-11      1.25870e-10      2.84857e-11      
                   1.25870e-10      1.25870e-10      1.25574e-10      
                   1.25870e-10      1.25870e-10      1.01981e-15      
                    27.000000         1.000000       
  1.42000e-07      8.10149e-06      4.84234e-11      7.18411e-11      
                   7.26880e-11      4.11079e-11      7.18411e-11      
                   7.26880e-11      7.26880e-11      1.66927e-11      
                   2.78482e-11      2.89822e-11      1.24861e-10      
                   2.78482e-11      1.24861e-10      1.24861e-10      
                   7.19768e-11      7.23379e-11      4.84026e-11      
                   4.07141e-11      7.23379e-11      4.84026e-11      
                   7.23379e-11      2.83841e-11      2.80080e-11      
                   1.64466e-11      1.25106e-10      2.83841e-11      
                   1.25106e-10      1.25106e-10      1.24861e-10      
                   1.25106e-10      1.25106e-10      1.01355e-15      
                    27.000000         1.000000       
  1.43000e-07      8.10394e-06      4.81642e-11      7.22723e-11      
                   7.23677e-11      4.08592e-11      7.22723e-11      
                   7.23677e-11      7.23677e-11      1.65912e-11      
                   2.85054e-11      2.88703e-11      1.24158e-10      
                   2.85054e-11      1.24158e-10      1.24158e-10      
                   7.16633e-11      7.20338e-11      4.81343e-11      
                   4.05324e-11      7.20338e-11      4.81343e-11      
                   7.20338e-11      2.82840e-11      2.79056e-11      
                   1.63555e-11      1.24357e-10      2.82840e-11      
                   1.24357e-10      1.24357e-10      1.24158e-10      
                   1.24357e-10      1.24357e-10      1.00778e-15      
                    27.000000         1.000000       
  1.44000e-07      8.09709e-06      4.79089e-11      7.19605e-11      
                   7.20523e-11      4.06120e-11      7.19605e-11      
                   7.20523e-11      7.20523e-11      1.64901e-11      
                   2.84075e-11      2.87597e-11      1.23466e-10      
                   2.84075e-11      1.23466e-10      1.23466e-10      
                   7.13547e-11      7.17326e-11      4.78688e-11      
                   4.03517e-11      7.17326e-11      4.78688e-11      
                   7.17326e-11      2.81852e-11      2.78077e-11      
                   1.62652e-11      1.23622e-10      2.81852e-11      
                   1.23622e-10      1.23622e-10      1.23466e-10      
                   1.23622e-10      1.23622e-10      1.00098e-15      
                    27.000000         1.000000       
  1.45000e-07      8.08953e-06      4.76576e-11      7.16535e-11      
                   7.17418e-11      4.03660e-11      7.16535e-11      
                   7.17418e-11      7.17418e-11      1.63896e-11      
                   2.83111e-11      2.86506e-11      1.22784e-10      
                   2.83111e-11      1.22784e-10      1.22784e-10      
                   7.10508e-11      7.14353e-11      4.76062e-11      
                   4.01720e-11      7.14353e-11      4.76062e-11      
                   7.14353e-11      2.80878e-11      2.77111e-11      
                   1.61757e-11      1.22902e-10      2.80878e-11      
                   1.22902e-10      1.22902e-10      1.22784e-10      
                   1.22902e-10      1.22902e-10      9.94217e-16      
                    27.000000         1.000000       
